Mass spectrum: Ephedrine; LC-ESI-ITFT; MS2; CE: 60%; R=7500; [M+H]+
Name: Ephedrine
Name: (1R,2S)-2-(methylamino)-1-phenyl-1-propanol
Formula: C10H15NO
Exact mass: 165.1154
SMILES: c1([C@H]([C@@H](NC)C)O)ccccc1
InChI: InChI=1S/C10H15NO/c1-8(11-2)10(12)9-6-4-3-5-7-9/h3-8,10-12H,1-2H3/t8-,10-/m0/s1
Instrument: LTQ Orbitrap XL Thermo Scientific
Instrument type: LC-ESI-ITFT
Ms type: MS2
Ionization: ESI
Ion mode: POSITIVE
Fragmentation mode: HCD
Collision energy: 60 % (nominal)
Resolution: 7500
Retention time: 2.9 min
Base peak: 166.123
Precursor m/z: 166.1226
Precursor type: [M+H]+
m/z	relative intensity	assigned
56.0495	24	C3H6N+
70.0652	24	C4H8N+
91.0542	24	C7H7+
93.07	3	C7H9+
115.0542	37	C9H7+
117.0699	251	C9H9+
118.0647	2	C8H8N+
132.081	5	C9H10N+
133.0886	231	C9H11N+
135.0804	15	C9H11O+
148.1121	999	C10H14N+
