Mass spectrum: Ephedrine; LC-ESI-ITFT; MS2; CE: 15%; R=15000; [M+H]+
Name: Ephedrine
Name: (1R,2S)-2-(methylamino)-1-phenyl-1-propanol
Formula: C10H15NO
Exact mass: 165.1154
SMILES: c1([C@H]([C@@H](NC)C)O)ccccc1
InChI: InChI=1S/C10H15NO/c1-8(11-2)10(12)9-6-4-3-5-7-9/h3-8,10-12H,1-2H3/t8-,10-/m0/s1
Instrument: LTQ Orbitrap XL Thermo Scientific
Instrument type: LC-ESI-ITFT
Ms type: MS2
Ionization: ESI
Ion mode: POSITIVE
Fragmentation mode: HCD
Collision energy: 15 % (nominal)
Resolution: 15000
Retention time: 2.9 min
Base peak: 166.123
Precursor m/z: 166.1226
Precursor type: [M+H]+
m/z	relative intensity	assigned
115.0506	1	C4H7N2O2+
115.0545	1	C9H7+
117.0698	2	C9H9+
133.0881	1	C9H11N+
148.1121	637	C10H14N+
166.1227	999	C10H16NO+
