Mass spectrum: Ephedrine; LC-ESI-ITFT; MS2; CE: 90%; R=7500; [M+H]+
Name: Ephedrine
Name: (1R,2S)-2-(methylamino)-1-phenyl-1-propanol
Formula: C10H15NO
Exact mass: 165.1154
SMILES: c1([C@H]([C@@H](NC)C)O)ccccc1
InChI: InChI=1S/C10H15NO/c1-8(11-2)10(12)9-6-4-3-5-7-9/h3-8,10-12H,1-2H3/t8-,10-/m0/s1
Instrument: LTQ Orbitrap XL Thermo Scientific
Instrument type: LC-ESI-ITFT
Ms type: MS2
Ionization: ESI
Ion mode: POSITIVE
Fragmentation mode: HCD
Collision energy: 90 % (nominal)
Resolution: 7500
Retention time: 2.9 min
Base peak: 166.123
Precursor m/z: 166.1226
Precursor type: [M+H]+
m/z	relative intensity	assigned
56.0495	128	C3H6N+
70.0652	77	C4H8N+
77.0385	7	C6H5+
79.0541	10	C6H7+
91.0542	515	C7H7+
92.0623	12	C7H8+
93.0698	20	C7H9+
104.0621	68	C8H8+
105.0699	38	C8H9+
115.0543	720	C9H7+
116.062	93	C9H8+
117.0699	656	C9H9+
118.0651	52	C8H8N+
120.0813	10	C8H10N+
130.0652	9	C9H8N+
132.0808	325	C9H10N+
133.0886	999	C9H11N+
148.1121	337	C10H14N+
