Mass spectrum: Ephedrine; LC-ESI-ITFT; MS2; CE: 75%; R=15000; [M+H]+
Name: Ephedrine
Name: (1R,2S)-2-(methylamino)-1-phenyl-1-propanol
Formula: C10H15NO
Exact mass: 165.1154
SMILES: c1([C@H]([C@@H](NC)C)O)ccccc1
InChI: InChI=1S/C10H15NO/c1-8(11-2)10(12)9-6-4-3-5-7-9/h3-8,10-12H,1-2H3/t8-,10-/m0/s1
Instrument: LTQ Orbitrap XL Thermo Scientific
Instrument type: LC-ESI-ITFT
Ms type: MS2
Ionization: ESI
Ion mode: POSITIVE
Fragmentation mode: HCD
Collision energy: 75 % (nominal)
Resolution: 15000
Retention time: 2.9 min
Base peak: 166.123
Precursor m/z: 166.1226
Precursor type: [M+H]+
m/z	relative intensity	assigned
56.0495	90	C3H6N+
70.0652	77	C4H8N+
79.0544	5	C6H7+
91.0542	159	C7H7+
93.0699	24	C7H9+
104.0618	8	C8H8+
105.0699	10	C8H9+
115.0543	324	C9H7+
116.0622	36	C9H8+
117.0699	700	C9H9+
118.0652	18	C8H8N+
130.0646	5	C9H8N+
132.0808	106	C9H10N+
133.0886	822	C9H11N+
135.0803	7	C9H11O+
146.0961	4	C10H12N+
148.1122	999	C10H14N+
