Mass spectrum: Naltrexone; LC-ESI-ITFT; MS2; CE: 75%; R=15000; [M+H]+
Name: Naltrexone
Name: (5alpha)-17-(Cyclopropylmethyl)-3,14-dihydroxy-4,5-epoxymorphinan-6-one
Formula: C20H23NO4
Exact mass: 341.1627
SMILES: c12[C@]34[C@@]5([C@H]([N@](CC6CC6)CC4)Cc2ccc(c1O[C@H]3C(=O)CC5)O)O
InChI: InChI=1S/C20H23NO4/c22-13-4-3-12-9-15-20(24)6-5-14(23)18-19(20,16(12)17(13)25-18)7-8-21(15)10-11-1-2-11/h3-4,11,15,18,22,24H,1-2,5-10H2/t15-,18+,19+,20-/m1/s1
Instrument: LTQ Orbitrap XL Thermo Scientific
Instrument type: LC-ESI-ITFT
Ms type: MS2
Ionization: ESI
Ion mode: POSITIVE
Fragmentation mode: HCD
Collision energy: 75 % (nominal)
Resolution: 15000
Retention time: 3.1 min
Base peak: 342.1711
Precursor m/z: 342.17
Precursor type: [M+H]+
m/z	relative intensity	assigned
53.0385	37	C4H5+
55.0542	339	C4H7+
80.0495	37	C5H6N+
82.065	17	C5H8N+
91.0542	21	C7H7+
118.065	27	C8H8N+
134.0968	19	C9H12N+
137.0598	20	C8H9O2+
146.0601	38	C9H8NO+
147.0438	68	C9H7O2+
147.0678	65	C9H9NO+
148.0756	58	C9H10NO+
153.0698	63	C12H9+
155.0857	26	C12H11+
157.0647	63	C11H9O+
160.0757	61	C10H10NO+
161.0598	214	C10H9O2+
165.0697	47	C13H9+
167.0853	54	C13H11+
169.0643	28	C12H9O+
171.0803	41	C12H11O+
173.0596	122	C11H9O2+
174.0549	24	C10H8NO2+
179.0857	24	C14H11+
181.0648	92	C13H9O+
181.101	28	C14H13+
182.097	52	C13H12N+
183.0801	53	C13H11O+
184.0517	23	C12H8O2+
184.0758	73	C12H10NO+
185.0596	101	C12H9O2+
187.0754	42	C12H11O2+
195.0803	59	C14H11O+
196.0756	23	C13H10NO+
198.0676	35	C13H10O2+
198.0911	70	C13H12NO+
199.0755	121	C13H11O2+
200.0703	59	C12H10NO2+
200.1072	80	C13H14NO+
201.0917	39	C13H13O2+
207.0799	31	C15H11O+
210.0914	104	C14H12NO+
211.0753	115	C14H11O2+
212.0706	999	C13H10NO2+
213.0784	134	C13H11NO2+
213.091	62	C14H13O2+
225.0914	24	C15H13O2+
226.0862	253	C14H12NO2+
227.0706	70	C14H11O3+
227.0938	43	C14H13NO2+
228.1018	392	C14H14NO2+
238.1226	52	C16H16NO+
239.1306	28	C16H17NO+
240.1017	129	C15H14NO2+
241.1104	20	C15H15NO2+
242.1175	47	C15H16NO2+
252.1019	87	C16H14NO2+
254.1179	46	C16H16NO2+
266.1171	30	C17H16NO2+
267.1252	551	C17H17NO2+
270.1123	176	C16H16NO3+
282.1488	75	C18H20NO2+
324.1594	35	C20H22NO3+
