Mass spectrum: 1-(3-(Trifluoromethyl)phenyl)piperazine; LC-ESI-ITFT; MS2; CE: 90%; R=7500; [M+H]+
Name: 1-(3-(Trifluoromethyl)phenyl)piperazine
Formula: C11H13F3N2
Exact mass: 230.1031
SMILES: c1c(C(F)(F)F)cccc1N1CCNCC1
InChI: InChI=1S/C11H13F3N2/c12-11(13,14)9-2-1-3-10(8-9)16-6-4-15-5-7-16/h1-3,8,15H,4-7H2
Instrument: LTQ Orbitrap XL Thermo Scientific
Instrument type: LC-ESI-ITFT
Ms type: MS2
Ionization: ESI
Ion mode: POSITIVE
Fragmentation mode: HCD
Collision energy: 90 % (nominal)
Resolution: 7500
Retention time: 5.9 min
Base peak: 231.1108
Precursor m/z: 231.1104
Precursor type: [M+H]+
m/z	relative intensity	assigned
56.0493	8	C3H6N+
58.065	8	C3H8N+
70.0653	20	C4H8N+
91.054	16	C7H7+
92.0624	8	C7H8+
93.0573	11	C6H7N+
104.0495	41	C7H6N+
117.0574	41	C8H7N+
118.0652	303	C8H8N+
119.073	352	C8H9N+
121.0449	29	C8H6F+
127.0355	144	C7H5F2+
128.0494	43	C9H6N+
129.0443	9	C8H5N2+
140.0307	29	C7H4F2N+
141.051	94	C8H7F2+
142.0465	12	C7H6F2N+
145.0259	156	C7H4F3+
146.0339	10	C7H5F3+
148.0558	217	C9H7FN+
151.0354	40	C9H5F2+
160.0371	48	C7H5F3N+
161.0446	38	C7H6F3N+
162.0527	32	C7H7F3N+
166.0463	125	C9H6F2N+
168.062	202	C9H8F2N+
171.0417	10	C9H6F3+
172.037	62	C8H5F3N+
173.032	35	C7H4F3N2+
174.0525	119	C8H7F3N+
186.0528	99	C9H7F3N+
188.0682	999	C9H9F3N+
200.0681	19	C10H9F3N+
231.1094	11	C11H14F3N2+
