Mass spectrum: EDDP; LC-ESI-ITFT; MS2; CE: 35%; R=15000; [M+H]+
Name: EDDP
Name: (2E)-2-ethylidene-1,5-dimethyl-3,3-diphenyl-pyrrolidine
Formula: C20H23N
Exact mass: 277.1830
SMILES: C/C=C/1\C(CC(N1C)C)(C2=CC=CC=C2)C3=CC=CC=C3
InChI: InChI=1S/C20H23N/c1-4-19-20(15-16(2)21(19)3,17-11-7-5-8-12-17)18-13-9-6-10-14-18/h4-14,16H,15H2,1-3H3/b19-4+
Instrument: LTQ Orbitrap XL Thermo Scientific
Instrument type: LC-ESI-ITFT
Ms type: MS2
Ionization: ESI
Ion mode: POSITIVE
Fragmentation mode: CID
Collision energy: 35 % (nominal)
Resolution: 15000
Retention time: 6.5 min
Base peak: 278.1909
Precursor m/z: 278.1903
Precursor type: [M+H]+
m/z	relative intensity	assigned
172.1121	2	C12H14N+
186.1275	2	C13H16N+
200.1434	14	C14H18N+
201.1512	9	C14H19N+
234.1279	194	C17H16N+
235.1353	4	C17H17N+
236.1436	1	C17H18N+
237.1515	1	C17H19N+
248.1435	26	C18H18N+
249.1514	999	C18H19N+
250.1589	10	C18H20N+
263.1667	7	C19H21N+
