Mass spectrum: Naltrexone; LC-ESI-ITFT; MS2; CE: 45%; R=7500; [M+H]+
Name: Naltrexone
Name: (5alpha)-17-(Cyclopropylmethyl)-3,14-dihydroxy-4,5-epoxymorphinan-6-one
Formula: C20H23NO4
Exact mass: 341.1627
SMILES: c12[C@]34[C@@]5([C@H]([N@](CC6CC6)CC4)Cc2ccc(c1O[C@H]3C(=O)CC5)O)O
InChI: InChI=1S/C20H23NO4/c22-13-4-3-12-9-15-20(24)6-5-14(23)18-19(20,16(12)17(13)25-18)7-8-21(15)10-11-1-2-11/h3-4,11,15,18,22,24H,1-2,5-10H2/t15-,18+,19+,20-/m1/s1
Instrument: LTQ Orbitrap XL Thermo Scientific
Instrument type: LC-ESI-ITFT
Ms type: MS2
Ionization: ESI
Ion mode: POSITIVE
Fragmentation mode: HCD
Collision energy: 45 % (nominal)
Resolution: 7500
Retention time: 3.1 min
Base peak: 342.1711
Precursor m/z: 342.17
Precursor type: [M+H]+
m/z	relative intensity	assigned
55.0541	19	C4H7+
161.0592	6	C10H9O2+
173.0596	7	C11H9O2+
199.0757	6	C13H11O2+
201.1154	7	C13H15NO+
211.0762	6	C14H11O2+
215.0698	4	C13H11O3+
225.0921	4	C15H13O2+
226.0859	7	C14H12NO2+
227.0696	17	C14H11O3+
227.1059	8	C15H15O2+
228.1021	30	C14H14NO2+
241.0853	4	C15H13O3+
252.1031	7	C16H14NO2+
254.1174	6	C16H16NO2+
267.1252	175	C17H17NO2+
270.1124	191	C16H16NO3+
282.1121	34	C17H16NO3+
282.1489	105	C18H20NO2+
296.1653	5	C19H22NO2+
306.1493	7	C20H20NO2+
324.1594	999	C20H22NO3+
342.1692	183	C20H24NO4+
