Mass spectrum: Benzoylecgonine; LC-ESI-ITFT; MS2; CE: 90%; R=15000; [M+H]+
Name: Benzoylecgonine
Name:  3-benzoyloxy-8-methyl-8-azabicyclo[3.2.1]octane-4-carboxylic acid
Formula: C16H19NO4
Exact mass: 289.1314
SMILES: CN1C2CCC1C(C(C2)OC(=O)C3=CC=CC=C3)C(=O)O
InChI: InChI=1S/C16H19NO4/c1-17-11-7-8-12(17)14(15(18)19)13(9-11)21-16(20)10-5-3-2-4-6-10/h2-6,11-14H,7-9H2,1H3,(H,18,19)
Instrument: LTQ Orbitrap XL Thermo Scientific
Instrument type: LC-ESI-ITFT
Ms type: MS2
Ionization: ESI
Ion mode: POSITIVE
Fragmentation mode: HCD
Collision energy: 90 % (nominal)
Resolution: 15000
Retention time: 4.6 min
Base peak: 290.1395
Precursor m/z: 290.1387
Precursor type: [M+H]+
m/z	relative intensity	assigned
56.0494	8	C3H6N+
57.0573	16	C3H7N+
65.0386	34	C5H5+
67.0542	90	C5H7+
68.0495	97	C4H6N+
70.065	7	C4H8N+
77.0386	495	C6H5+
79.0542	16	C6H7+
81.0699	32	C6H9+
82.0652	345	C5H8N+
83.0491	47	C5H7O+
83.073	149	C5H9N+
91.0542	262	C7H7+
93.0699	45	C7H9+
94.0652	44	C6H8N+
95.0492	58	C6H7O+
96.0807	28	C6H10N+
100.0757	34	C5H10NO+
105.0335	999	C7H5O+
105.0447	132	C6H5N2+
107.073	18	C7H9N+
108.0808	25	C7H10N+
117.0573	9	C8H7N+
119.0492	66	C8H7O+
122.0964	55	C8H12N+
124.1121	26	C8H14N+
135.0678	32	C8H9NO+
140.0706	17	C7H10NO2+
150.0914	19	C9H12NO+
168.1016	58	C9H14NO2+
