Mass spectrum: Benzoylecgonine; LC-ESI-ITFT; MS2; CE: 30%; R=7500; [M+H]+
Name: Benzoylecgonine
Name:  3-benzoyloxy-8-methyl-8-azabicyclo[3.2.1]octane-4-carboxylic acid
Formula: C16H19NO4
Exact mass: 289.1314
SMILES: CN1C2CCC1C(C(C2)OC(=O)C3=CC=CC=C3)C(=O)O
InChI: InChI=1S/C16H19NO4/c1-17-11-7-8-12(17)14(15(18)19)13(9-11)21-16(20)10-5-3-2-4-6-10/h2-6,11-14H,7-9H2,1H3,(H,18,19)
Instrument: LTQ Orbitrap XL Thermo Scientific
Instrument type: LC-ESI-ITFT
Ms type: MS2
Ionization: ESI
Ion mode: POSITIVE
Fragmentation mode: HCD
Collision energy: 30 % (nominal)
Resolution: 7500
Retention time: 4.6 min
Base peak: 290.1395
Precursor m/z: 290.1387
Precursor type: [M+H]+
m/z	relative intensity	assigned
82.0651	7	C5H8N+
93.0699	2	C7H9+
105.0332	25	C7H5O+
122.096	2	C8H12N+
124.1119	14	C8H14N+
150.0913	10	C9H12NO+
168.1018	540	C9H14NO2+
272.1281	37	C16H18NO3+
290.1386	999	C16H20NO4+
