Mass spectrum: Amitriptyline; LC-ESI-ITFT; MS2; CE: 30%; R=7500; [M+H]+
Name: Amitriptyline
Name: 3-(10,11-Dihydro-5H-dibenzo[a,d][7]annulen-5-ylidene)-N,N-dimethyl-1-propanamine
Formula: C20H23N
Exact mass: 277.1830
SMILES: C1(\c2c(CCc3c1cccc3)cccc2)=C\CCN(C)C
InChI: InChI=1S/C20H23N/c1-21(2)15-7-12-20-18-10-5-3-8-16(18)13-14-17-9-4-6-11-19(17)20/h3-6,8-12H,7,13-15H2,1-2H3
Instrument: LTQ Orbitrap XL Thermo Scientific
Instrument type: LC-ESI-ITFT
Ms type: MS2
Ionization: ESI
Ion mode: POSITIVE
Fragmentation mode: HCD
Collision energy: 30 % (nominal)
Resolution: 7500
Retention time: 8.6 min
Base peak: 278.1913
Precursor m/z: 278.1903
Precursor type: [M+H]+
m/z	relative intensity	assigned
58.065	3	C3H8N+
84.0808	9	C5H10N+
91.0542	55	C7H7+
105.0698	39	C8H9+
117.0698	56	C9H9+
141.0693	2	C11H9+
155.0855	15	C12H11+
178.0774	4	C14H10+
179.0852	5	C14H11+
191.0854	29	C15H11+
205.1008	6	C16H13+
207.1171	3	C16H15+
218.1092	4	C17H14+
233.1325	264	C18H17+
278.1905	999	C20H24N+
