Mass spectrum: Naltrexone; LC-ESI-ITFT; MS2; CE: 90%; R=7500; [M+H]+
Name: Naltrexone
Name: (5alpha)-17-(Cyclopropylmethyl)-3,14-dihydroxy-4,5-epoxymorphinan-6-one
Formula: C20H23NO4
Exact mass: 341.1627
SMILES: c12[C@]34[C@@]5([C@H]([N@](CC6CC6)CC4)Cc2ccc(c1O[C@H]3C(=O)CC5)O)O
InChI: InChI=1S/C20H23NO4/c22-13-4-3-12-9-15-20(24)6-5-14(23)18-19(20,16(12)17(13)25-18)7-8-21(15)10-11-1-2-11/h3-4,11,15,18,22,24H,1-2,5-10H2/t15-,18+,19+,20-/m1/s1
Instrument: LTQ Orbitrap XL Thermo Scientific
Instrument type: LC-ESI-ITFT
Ms type: MS2
Ionization: ESI
Ion mode: POSITIVE
Fragmentation mode: HCD
Collision energy: 90 % (nominal)
Resolution: 7500
Retention time: 3.1 min
Base peak: 342.1711
Precursor m/z: 342.17
Precursor type: [M+H]+
m/z	relative intensity	assigned
53.0384	29	C4H5+
55.0542	270	C4H7+
80.0492	20	C5H6N+
115.0541	47	C9H7+
118.0647	30	C8H8N+
128.0623	26	C10H8+
129.0698	23	C10H9+
141.07	42	C11H9+
145.0645	47	C10H9O+
146.0599	31	C9H8NO+
147.0444	39	C9H7O2+
152.0618	49	C12H8+
153.0699	110	C12H9+
155.0856	47	C12H11+
156.0813	28	C11H10N+
157.0651	54	C11H9O+
161.0594	171	C10H9O2+
165.0698	79	C13H9+
167.0729	26	C12H9N+
167.0854	22	C13H11+
168.0803	31	C12H10N+
169.0647	34	C12H9O+
171.0435	22	C11H7O2+
171.0812	26	C12H11O+
173.0602	61	C11H9O2+
179.0856	30	C14H11+
180.081	38	C13H10N+
181.0644	61	C13H9O+
184.052	44	C12H8O2+
184.0754	157	C12H10NO+
185.06	124	C12H9O2+
185.0835	26	C12H11NO+
194.0963	29	C14H12N+
195.0806	24	C14H11O+
198.0915	41	C13H12NO+
200.071	34	C12H10NO2+
200.107	38	C13H14NO+
210.0919	55	C14H12NO+
211.0637	127	C13H9NO2+
212.0705	999	C13H10NO2+
213.0784	124	C13H11NO2+
226.0858	148	C14H12NO2+
228.1027	74	C14H14NO2+
238.1231	22	C16H16NO+
240.1019	40	C15H14NO2+
252.1013	39	C16H14NO2+
267.1248	65	C17H17NO2+
270.1116	18	C16H16NO3+
