Mass spectrum: Ketamine; LC-ESI-ITFT; MS2; CE: 45%; R=15000; [M+H]+
Name: Ketamine
Name: 2-(2-chlorophenyl)-2-(methylamino)-1-cyclohexanone
Formula: C13H16ClNO
Exact mass: 237.0920
SMILES: CNC1(CCCCC1=O)C2=CC=CC=C2Cl
InChI: InChI=1S/C13H16ClNO/c1-15-13(9-5-4-8-12(13)16)10-6-2-3-7-11(10)14/h2-3,6-7,15H,4-5,8-9H2,1H3
Instrument: LTQ Orbitrap XL Thermo Scientific
Instrument type: LC-ESI-ITFT
Ms type: MS2
Ionization: ESI
Ion mode: POSITIVE
Fragmentation mode: HCD
Collision energy: 45 % (nominal)
Resolution: 15000
Retention time: 4.6 min
Base peak: 238.0997
Precursor m/z: 238.0993
Precursor type: [M+H]+
m/z	relative intensity	assigned
67.0542	82	C5H7+
115.0538	3	C9H7+
125.0153	999	C7H6Cl+
138.9948	9	C7H4ClO+
141.0102	31	C7H6ClO+
144.0933	9	C11H12+
149.0152	8	C9H6Cl+
151.0308	45	C9H8Cl+
152.0261	82	C8H7ClN+
153.0698	15	C12H9+
154.042	3	C8H9ClN+
154.0777	20	C12H10+
157.0886	3	C11H11N+
163.0309	181	C10H8Cl+
165.0101	47	C9H6ClO+
165.0465	34	C10H10Cl+
177.0465	8	C11H10Cl+
179.0623	720	C11H12Cl+
185.1193	8	C13H15N+
189.0465	128	C12H10Cl+
191.0622	11	C12H12Cl+
192.0572	3	C11H11ClN+
207.0572	442	C12H12ClO+
220.0887	522	C13H15ClN+
238.0988	138	C13H17ClNO+
