Mass spectrum: Dextromethorphan; LC-ESI-ITFT; MS2; CE: 90%; R=7500; [M+H]+
Name: Dextromethorphan
Name: DXM
Name: (14alpha)-3-Methoxy-17-methylmorphinan
Formula: C18H25NO
Exact mass: 271.1936
SMILES: O(c1ccc3c(c1)[C@@]24[C@@H]([C@H](N(CC2)C)C3)CCCC4)C
InChI: InChI=1S/C18H25NO/c1-19-10-9-18-8-4-3-5-15(18)17(19)11-13-6-7-14(20-2)12-16(13)18/h6-7,12,15,17H,3-5,8-11H2,1-2H3/t15-,17+,18+/m1/s1
Instrument: LTQ Orbitrap XL Thermo Scientific
Instrument type: LC-ESI-ITFT
Ms type: MS2
Ionization: ESI
Ion mode: POSITIVE
Fragmentation mode: HCD
Collision energy: 90 % (nominal)
Resolution: 7500
Retention time: 6.6 min
Base peak: 272.2015
Precursor m/z: 272.2009
Precursor type: [M+H]+
m/z	relative intensity	assigned
67.0543	9	C5H7+
69.0699	16	C5H9+
77.0385	5	C6H5+
79.0541	8	C6H7+
81.0697	15	C6H9+
91.0542	81	C7H7+
105.0697	16	C8H9+
107.0492	10	C7H7O+
115.0541	20	C9H7+
116.062	8	C9H8+
117.0697	18	C9H9+
119.0854	19	C9H11+
121.0648	136	C8H9O+
128.062	40	C10H8+
129.0697	14	C10H9+
131.0489	7	C9H7O+
132.0572	49	C9H8O+
135.0804	50	C9H11O+
141.0699	34	C11H9+
142.0783	6	C11H10+
143.0858	6	C11H11+
144.0569	63	C10H8O+
145.0647	36	C10H9O+
146.0723	10	C10H10O+
147.0804	442	C10H11O+
153.0695	10	C12H9+
154.0779	8	C12H10+
155.0603	10	C10H7N2+
155.085	11	C12H11+
156.0568	30	C11H8O+
157.0647	13	C11H9O+
158.0726	71	C11H10O+
159.0804	152	C11H11O+
160.0879	7	C11H12O+
161.0961	21	C11H13O+
165.0696	9	C13H9+
166.0776	18	C13H10+
170.0725	34	C12H10O+
171.0805	999	C12H11O+
172.0883	13	C12H12O+
173.096	145	C12H13O+
181.101	23	C14H13+
182.1092	12	C14H14+
183.0807	15	C13H11O+
184.0881	15	C13H12O+
185.0962	28	C13H13O+
187.1112	6	C13H15O+
197.0952	8	C14H13O+
198.1039	191	C14H14O+
199.1116	17	C14H15O+
200.1199	6	C14H16O+
209.1073	12	C14H13N2+
213.1272	197	C15H17O+
215.1439	42	C15H19O+
