Mass spectrum: 1-(3-(Trifluoromethyl)phenyl)piperazine; LC-ESI-ITFT; MS2; CE: 35%; R=15000; [M+H]+
Name: 1-(3-(Trifluoromethyl)phenyl)piperazine
Formula: C11H13F3N2
Exact mass: 230.1031
SMILES: c1c(C(F)(F)F)cccc1N1CCNCC1
InChI: InChI=1S/C11H13F3N2/c12-11(13,14)9-2-1-3-10(8-9)16-6-4-15-5-7-16/h1-3,8,15H,4-7H2
Instrument: LTQ Orbitrap XL Thermo Scientific
Instrument type: LC-ESI-ITFT
Ms type: MS2
Ionization: ESI
Ion mode: POSITIVE
Fragmentation mode: CID
Collision energy: 35 % (nominal)
Resolution: 15000
Retention time: 5.9 min
Base peak: 231.1108
Precursor m/z: 231.1104
Precursor type: [M+H]+
m/z	relative intensity	assigned
70.0651	1	C4H8N+
119.0731	2	C8H9N+
166.0464	4	C9H6F2N+
168.0615	1	C9H8F2N+
170.0775	4	C9H10F2N+
172.0372	2	C8H5F3N+
173.0457	1	C8H5N4O+
174.0526	15	C8H7F3N+
186.0526	17	C9H7F3N+
188.0683	999	C9H9F3N+
200.0682	44	C10H9F3N+
201.0634	9	C9H8F3N2+
211.1042	64	C11H13F2N2+
212.0683	5	C11H9F3N+
214.0838	30	C11H11F3N+
231.1095	1	C11H14F3N2+
