Mass spectrum: Cocaine; LC-ESI-ITFT; MS2; CE: 35%; R=15000; [M+H]+
Name: Cocaine
Name:  (1S,3S,4R,5R)-3-benzoyloxy-8-methyl-8-azabicyclo[3.2.1]octane-4-carboxylic acid methyl ester
Formula: C17H21NO4
Exact mass: 303.1471
SMILES: CN1C2CCC1C(C(C2)OC(=O)C3=CC=CC=C3)C(=O)OC
InChI: InChI=1S/C17H21NO4/c1-18-12-8-9-13(18)15(17(20)21-2)14(10-12)22-16(19)11-6-4-3-5-7-11/h3-7,12-15H,8-10H2,1-2H3/t12-,13+,14-,15+/m0/s1
Instrument: LTQ Orbitrap XL Thermo Scientific
Instrument type: LC-ESI-ITFT
Ms type: MS2
Ionization: ESI
Ion mode: POSITIVE
Fragmentation mode: CID
Collision energy: 35 % (nominal)
Resolution: 15000
Retention time: 5.0 min
Base peak: 304.1557
Precursor m/z: 304.1543
Precursor type: [M+H]+
m/z	relative intensity	assigned
91.0542	1	C7H7+
93.0699	1	C7H9+
108.0808	10	C7H10N+
118.0414	1	C8H6O+
119.0491	4	C8H7O+
122.0964	3	C8H12N+
150.0914	29	C9H12NO+
151.0753	2	C9H11O2+
182.1177	999	C10H16NO2+
272.128	11	C16H18NO3+
