Mass spectrum: Methadone; LC-ESI-ITFT; MS2; CE: 30%; R=7500; [M+H]+
Name: Methadone
Name: 6-(dimethylamino)-4,4-diphenyl-3-heptanone
Formula: C21H27NO
Exact mass: 309.2093
SMILES: CCC(=O)C(CC(C)N(C)C)(c1ccccc1)c2ccccc2
InChI: InChI=1S/C21H27NO/c1-5-20(23)21(16-17(2)22(3)4,18-12-8-6-9-13-18)19-14-10-7-11-15-19/h6-15,17H,5,16H2,1-4H3
Instrument: LTQ Orbitrap XL Thermo Scientific
Instrument type: LC-ESI-ITFT
Ms type: MS2
Ionization: ESI
Ion mode: POSITIVE
Fragmentation mode: HCD
Collision energy: 30 % (nominal)
Resolution: 7500
Retention time: 8.4 min
Base peak: 310.2177
Precursor m/z: 310.2165
Precursor type: [M+H]+
m/z	relative intensity	assigned
57.0332	4	C3H5O+
91.0544	6	C7H7+
105.0333	55	C7H5O+
105.0699	8	C8H9+
159.1169	19	C12H15+
161.0959	1	C11H13O+
187.1117	10	C13H15O+
195.117	8	C15H15+
219.1167	16	C17H15+
223.1118	44	C16H15O+
247.1481	35	C19H19+
265.1587	999	C19H21O+
310.2164	107	C21H28NO+
