Mass spectrum: Ketamine; LC-ESI-ITFT; MS2; CE: 75%; R=15000; [M+H]+
Name: Ketamine
Name: 2-(2-chlorophenyl)-2-(methylamino)-1-cyclohexanone
Formula: C13H16ClNO
Exact mass: 237.0920
SMILES: CNC1(CCCCC1=O)C2=CC=CC=C2Cl
InChI: InChI=1S/C13H16ClNO/c1-15-13(9-5-4-8-12(13)16)10-6-2-3-7-11(10)14/h2-3,6-7,15H,4-5,8-9H2,1H3
Instrument: LTQ Orbitrap XL Thermo Scientific
Instrument type: LC-ESI-ITFT
Ms type: MS2
Ionization: ESI
Ion mode: POSITIVE
Fragmentation mode: HCD
Collision energy: 75 % (nominal)
Resolution: 15000
Retention time: 4.6 min
Base peak: 238.0997
Precursor m/z: 238.0993
Precursor type: [M+H]+
m/z	relative intensity	assigned
67.0542	23	C5H7+
77.0385	2	C6H5+
89.0385	4	C7H5+
113.0153	2	C6H6Cl+
115.0542	22	C9H7+
116.062	25	C9H8+
125.0153	999	C7H6Cl+
127.0541	3	C10H7+
128.062	50	C10H8+
129.0698	34	C10H9+
130.0777	27	C10H10+
138.9944	9	C7H4ClO+
139.0054	2	C9HNO+
139.0307	2	C8H8Cl+
141.0102	33	C7H6ClO+
141.0701	5	C11H9+
142.0779	4	C11H10+
143.0607	4	C9H7N2+
143.0854	9	C11H11+
144.0567	2	C10H8O+
144.0933	30	C11H12+
145.0658	1	C7H12ClN+
149.0152	15	C9H6Cl+
150.0234	4	C9H7Cl+
151.0309	74	C9H8Cl+
152.0261	52	C8H7ClN+
152.062	5	C12H8+
153.0698	33	C12H9+
154.0416	5	C8H9ClN+
154.0776	51	C12H10+
155.0604	23	C10H7N2+
155.0854	3	C12H11+
156.0933	16	C12H12+
157.0885	10	C11H11N+
163.0309	99	C10H8Cl+
165.0102	49	C9H6ClO+
165.0466	21	C10H10Cl+
172.0884	4	C12H12O+
179.0622	26	C11H12Cl+
184.1122	2	C13H14N+
189.0467	9	C12H10Cl+
207.0567	4	C12H12ClO+
220.0889	9	C13H15ClN+
