Mass spectrum: EDDP; LC-ESI-ITFT; MS2; CE: 90%; R=15000; [M+H]+
Name: EDDP
Name: (2E)-2-ethylidene-1,5-dimethyl-3,3-diphenyl-pyrrolidine
Formula: C20H23N
Exact mass: 277.1830
SMILES: C/C=C/1\C(CC(N1C)C)(C2=CC=CC=C2)C3=CC=CC=C3
InChI: InChI=1S/C20H23N/c1-4-19-20(15-16(2)21(19)3,17-11-7-5-8-12-17)18-13-9-6-10-14-18/h4-14,16H,15H2,1-3H3/b19-4+
Instrument: LTQ Orbitrap XL Thermo Scientific
Instrument type: LC-ESI-ITFT
Ms type: MS2
Ionization: ESI
Ion mode: POSITIVE
Fragmentation mode: HCD
Collision energy: 90 % (nominal)
Resolution: 15000
Retention time: 6.5 min
Base peak: 278.1909
Precursor m/z: 278.1903
Precursor type: [M+H]+
m/z	relative intensity	assigned
58.0651	6	C3H8N+
70.0651	13	C4H8N+
91.0542	70	C7H7+
103.0542	25	C8H7+
105.0698	18	C8H9+
115.0542	49	C9H7+
117.0698	12	C9H9+
118.0651	23	C8H8N+
124.1121	6	C8H14N+
128.062	17	C10H8+
129.0698	27	C10H9+
131.0855	4	C10H11+
132.0807	7	C9H10N+
143.0728	16	C10H9N+
144.0807	12	C10H10N+
156.0808	24	C11H10N+
157.0886	173	C11H11N+
158.0964	323	C11H12N+
165.0697	7	C13H9+
167.0855	5	C13H11+
170.0964	46	C12H12N+
171.1042	69	C12H13N+
172.1121	63	C12H14N+
178.0777	22	C14H10+
184.1119	3	C13H14N+
186.1277	625	C13H16N+
191.0854	14	C15H11+
192.0935	5	C15H12+
193.0886	10	C14H11N+
193.1012	15	C15H13+
200.1434	47	C14H18N+
201.1511	12	C14H19N+
202.0773	4	C16H10+
203.0856	8	C16H11+
204.093	9	C16H12+
205.1011	6	C16H13+
206.0964	43	C15H12N+
207.1042	65	C15H13N+
217.0888	3	C16H11N+
217.1013	8	C17H13+
218.0964	60	C16H12N+
219.1043	439	C16H13N+
220.112	19	C16H14N+
232.1122	19	C17H14N+
233.1198	47	C17H15N+
234.1278	999	C17H16N+
248.1433	56	C18H18N+
249.151	13	C18H19N+
262.1587	8	C19H20N+
