Mass spectrum: Amitriptyline; LC-ESI-ITFT; MS2; CE: 30%; R=15000; [M+H]+
Name: Amitriptyline
Name: 3-(10,11-Dihydro-5H-dibenzo[a,d][7]annulen-5-ylidene)-N,N-dimethyl-1-propanamine
Formula: C20H23N
Exact mass: 277.1830
SMILES: C1(\c2c(CCc3c1cccc3)cccc2)=C\CCN(C)C
InChI: InChI=1S/C20H23N/c1-21(2)15-7-12-20-18-10-5-3-8-16(18)13-14-17-9-4-6-11-19(17)20/h3-6,8-12H,7,13-15H2,1-2H3
Instrument: LTQ Orbitrap XL Thermo Scientific
Instrument type: LC-ESI-ITFT
Ms type: MS2
Ionization: ESI
Ion mode: POSITIVE
Fragmentation mode: HCD
Collision energy: 30 % (nominal)
Resolution: 15000
Retention time: 8.6 min
Base peak: 278.1913
Precursor m/z: 278.1903
Precursor type: [M+H]+
m/z	relative intensity	assigned
58.0651	4	C3H8N+
84.0807	10	C5H10N+
91.0542	50	C7H7+
105.0699	51	C8H9+
117.0698	57	C9H9+
129.07	3	C10H9+
141.0697	2	C11H9+
155.0854	18	C12H11+
178.0775	3	C14H10+
179.0855	6	C14H11+
191.0855	31	C15H11+
193.1008	2	C15H13+
205.101	6	C16H13+
207.116	2	C16H15+
218.1091	5	C17H14+
233.1325	283	C18H17+
278.1904	999	C20H24N+
