Mass spectrum: Cocaine; LC-ESI-ITFT; MS2; CE: 15%; R=7500; [M+H]+
Name: Cocaine
Name:  (1S,3S,4R,5R)-3-benzoyloxy-8-methyl-8-azabicyclo[3.2.1]octane-4-carboxylic acid methyl ester
Formula: C17H21NO4
Exact mass: 303.1471
SMILES: CN1C2CCC1C(C(C2)OC(=O)C3=CC=CC=C3)C(=O)OC
InChI: InChI=1S/C17H21NO4/c1-18-12-8-9-13(18)15(17(20)21-2)14(10-12)22-16(19)11-6-4-3-5-7-11/h3-7,12-15H,8-10H2,1-2H3/t12-,13+,14-,15+/m0/s1
Instrument: LTQ Orbitrap XL Thermo Scientific
Instrument type: LC-ESI-ITFT
Ms type: MS2
Ionization: ESI
Ion mode: POSITIVE
Fragmentation mode: HCD
Collision energy: 15 % (nominal)
Resolution: 7500
Retention time: 5.0 min
Base peak: 304.1557
Precursor m/z: 304.1543
Precursor type: [M+H]+
m/z	relative intensity	assigned
304.1546	999	C17H22NO4+
