Mass spectrum: Mephedrone; LC-ESI-ITFT; MS2; CE: 45%; R=15000; [M+H]+
Name: Mephedrone
Name: 2-(Methylamino)-1-(4-methylphenyl)-1-propanone
Name: 4-methylmethcathinone
Formula: C11H15NO
Exact mass: 177.1154
SMILES: Cc1ccc(cc1)C(=O)C(C)NC
InChI: InChI=1S/C11H15NO/c1-8-4-6-10(7-5-8)11(13)9(2)12-3/h4-7,9,12H,1-3H3
Instrument: LTQ Orbitrap XL Thermo Scientific
Instrument type: LC-ESI-ITFT
Ms type: MS2
Ionization: ESI
Ion mode: POSITIVE
Fragmentation mode: HCD
Collision energy: 45 % (nominal)
Resolution: 15000
Retention time: 4.3 min
Base peak: 178.1231
Precursor m/z: 178.1226
Precursor type: [M+H]+
m/z	relative intensity	assigned
58.0652	4	C3H8N+
119.0856	49	C9H11+
129.0699	2	C10H9+
130.0646	1	C9H8N+
144.0806	3	C10H10N+
145.0887	294	C10H11N+
147.0805	63	C10H11O+
158.0958	1	C11H12N+
160.1122	999	C11H14N+
178.1226	49	C11H16NO+
