Mass spectrum: Benzoylecgonine; LC-ESI-ITFT; MS2; CE: 75%; R=15000; [M+H]+
Name: Benzoylecgonine
Name:  3-benzoyloxy-8-methyl-8-azabicyclo[3.2.1]octane-4-carboxylic acid
Formula: C16H19NO4
Exact mass: 289.1314
SMILES: CN1C2CCC1C(C(C2)OC(=O)C3=CC=CC=C3)C(=O)O
InChI: InChI=1S/C16H19NO4/c1-17-11-7-8-12(17)14(15(18)19)13(9-11)21-16(20)10-5-3-2-4-6-10/h2-6,11-14H,7-9H2,1H3,(H,18,19)
Instrument: LTQ Orbitrap XL Thermo Scientific
Instrument type: LC-ESI-ITFT
Ms type: MS2
Ionization: ESI
Ion mode: POSITIVE
Fragmentation mode: HCD
Collision energy: 75 % (nominal)
Resolution: 15000
Retention time: 4.6 min
Base peak: 290.1395
Precursor m/z: 290.1387
Precursor type: [M+H]+
m/z	relative intensity	assigned
57.0575	7	C3H7N+
65.0385	15	C5H5+
67.0542	66	C5H7+
68.0495	56	C4H6N+
77.0386	141	C6H5+
79.0542	11	C6H7+
81.0698	16	C6H9+
82.0651	278	C5H8N+
83.0492	26	C5H7O+
83.073	93	C5H9N+
84.0809	13	C5H10N+
91.0542	204	C7H7+
93.0334	11	C6H5O+
93.0699	49	C7H9+
94.065	32	C6H8N+
95.0491	17	C6H7O+
96.0808	31	C6H10N+
100.0757	27	C5H10NO+
105.0335	999	C7H5O+
105.0445	51	C6H5N2+
107.0731	11	C7H9N+
108.0807	31	C7H10N+
117.0572	9	C8H7N+
119.0491	127	C8H7O+
122.0964	93	C8H12N+
124.112	48	C8H14N+
132.0808	14	C9H10N+
135.0678	37	C8H9NO+
140.0705	16	C7H10NO2+
150.0913	66	C9H12NO+
168.1019	272	C9H14NO2+
