Mass spectrum: Cocaine; LC-ESI-ITFT; MS2; CE: 45%; R=15000; [M+H]+
Name: Cocaine
Name:  (1S,3S,4R,5R)-3-benzoyloxy-8-methyl-8-azabicyclo[3.2.1]octane-4-carboxylic acid methyl ester
Formula: C17H21NO4
Exact mass: 303.1471
SMILES: CN1C2CCC1C(C(C2)OC(=O)C3=CC=CC=C3)C(=O)OC
InChI: InChI=1S/C17H21NO4/c1-18-12-8-9-13(18)15(17(20)21-2)14(10-12)22-16(19)11-6-4-3-5-7-11/h3-7,12-15H,8-10H2,1-2H3/t12-,13+,14-,15+/m0/s1
Instrument: LTQ Orbitrap XL Thermo Scientific
Instrument type: LC-ESI-ITFT
Ms type: MS2
Ionization: ESI
Ion mode: POSITIVE
Fragmentation mode: HCD
Collision energy: 45 % (nominal)
Resolution: 15000
Retention time: 5.0 min
Base peak: 304.1557
Precursor m/z: 304.1543
Precursor type: [M+H]+
m/z	relative intensity	assigned
65.0385	1	C5H5+
77.0384	2	C6H5+
82.0652	109	C5H8N+
91.0542	15	C7H7+
93.0335	3	C6H5O+
93.0699	5	C7H9+
94.0652	3	C6H8N+
96.0808	9	C6H10N+
105.0335	95	C7H5O+
108.0808	28	C7H10N+
114.0917	1	C6H12NO+
118.0413	4	C8H6O+
119.0492	23	C8H7O+
122.0965	19	C8H12N+
125.0601	2	C7H9O2+
132.0807	2	C9H10N+
150.0914	69	C9H12NO+
151.0753	5	C9H11O2+
154.0864	9	C8H12NO2+
182.1178	999	C10H16NO2+
272.1284	11	C16H18NO3+
304.1544	104	C17H22NO4+
