Mass spectrum: Amitriptyline; LC-ESI-ITFT; MS2; CE: 75%; R=15000; [M+H]+
Name: Amitriptyline
Name: 3-(10,11-Dihydro-5H-dibenzo[a,d][7]annulen-5-ylidene)-N,N-dimethyl-1-propanamine
Formula: C20H23N
Exact mass: 277.1830
SMILES: C1(\c2c(CCc3c1cccc3)cccc2)=C\CCN(C)C
InChI: InChI=1S/C20H23N/c1-21(2)15-7-12-20-18-10-5-3-8-16(18)13-14-17-9-4-6-11-19(17)20/h3-6,8-12H,7,13-15H2,1-2H3
Instrument: LTQ Orbitrap XL Thermo Scientific
Instrument type: LC-ESI-ITFT
Ms type: MS2
Ionization: ESI
Ion mode: POSITIVE
Fragmentation mode: HCD
Collision energy: 75 % (nominal)
Resolution: 15000
Retention time: 8.6 min
Base peak: 278.1913
Precursor m/z: 278.1903
Precursor type: [M+H]+
m/z	relative intensity	assigned
58.0651	51	C3H8N+
70.0652	23	C4H8N+
77.0387	16	C6H5+
79.0542	44	C6H7+
84.0807	178	C5H10N+
85.0885	25	C5H11N+
91.0542	999	C7H7+
103.0542	67	C8H7+
105.0699	863	C8H9+
115.0542	179	C9H7+
117.0699	803	C9H9+
128.0621	38	C10H8+
129.0698	281	C10H9+
141.0699	100	C11H9+
142.0773	9	C11H10+
153.0698	51	C12H9+
154.0776	32	C12H10+
155.0605	37	C10H7N2+
155.0854	241	C12H11+
165.0696	31	C13H9+
167.0858	10	C13H11+
178.0776	309	C14H10+
179.0855	287	C14H11+
189.0701	20	C15H9+
190.0776	119	C15H10+
191.0855	812	C15H11+
192.0933	152	C15H12+
193.1012	79	C15H13+
202.0778	44	C16H10+
203.0855	504	C16H11+
204.0933	334	C16H12+
205.1011	304	C16H13+
215.0856	19	C17H11+
216.0934	33	C17H12+
217.1011	236	C17H13+
218.1089	443	C17H14+
231.117	12	C18H15+
