Mass spectrum: Methamphetamine; LC-ESI-ITFT; MS2; CE: 35%; R=15000; [M+H]+
Name: Methamphetamine
Name: (2S)-N-methyl-1-phenylpropan-2-amine
Formula: C10H15N
Exact mass: 149.1204
SMILES: c1cccc(c1)C[C@H](C)NC
InChI: InChI=1S/C10H15N/c1-9(11-2)8-10-6-4-3-5-7-10/h3-7,9,11H,8H2,1-2H3/t9-/m0/s1
Instrument: LTQ Orbitrap XL Thermo Scientific
Instrument type: LC-ESI-ITFT
Ms type: MS2
Ionization: ESI
Ion mode: POSITIVE
Fragmentation mode: CID
Collision energy: 35 % (nominal)
Resolution: 15000
Retention time: 3.7 min
Base peak: 150.1279
Precursor m/z: 150.1277
Precursor type: [M+H]+
m/z	relative intensity	assigned
91.0543	476	C7H7+
104.062	1	C8H8+
117.0697	1	C9H9+
119.0856	999	C9H11+
150.1278	747	C10H16N+
