Mass spectrum: Amitriptyline; LC-ESI-ITFT; MS2; CE: 90%; R=15000; [M+H]+
Name: Amitriptyline
Name: 3-(10,11-Dihydro-5H-dibenzo[a,d][7]annulen-5-ylidene)-N,N-dimethyl-1-propanamine
Formula: C20H23N
Exact mass: 277.1830
SMILES: C1(\c2c(CCc3c1cccc3)cccc2)=C\CCN(C)C
InChI: InChI=1S/C20H23N/c1-21(2)15-7-12-20-18-10-5-3-8-16(18)13-14-17-9-4-6-11-19(17)20/h3-6,8-12H,7,13-15H2,1-2H3
Instrument: LTQ Orbitrap XL Thermo Scientific
Instrument type: LC-ESI-ITFT
Ms type: MS2
Ionization: ESI
Ion mode: POSITIVE
Fragmentation mode: HCD
Collision energy: 90 % (nominal)
Resolution: 15000
Retention time: 8.6 min
Base peak: 278.1913
Precursor m/z: 278.1903
Precursor type: [M+H]+
m/z	relative intensity	assigned
58.0651	46	C3H8N+
65.0386	8	C5H5+
70.0651	33	C4H8N+
72.0805	6	C4H10N+
77.0386	46	C6H5+
79.0542	87	C6H7+
84.0808	110	C5H10N+
85.0886	9	C5H11N+
91.0543	999	C7H7+
103.0542	138	C8H7+
105.0699	606	C8H9+
115.0543	377	C9H7+
117.0699	597	C9H9+
128.0621	131	C10H8+
129.0699	266	C10H9+
141.0699	133	C11H9+
142.0776	18	C11H10+
152.062	14	C12H8+
153.0699	82	C12H9+
154.0777	37	C12H10+
155.0603	83	C10H7N2+
155.0855	106	C12H11+
165.0699	98	C13H9+
167.0852	7	C13H11+
178.0777	522	C14H10+
179.0855	184	C14H11+
189.0699	112	C15H9+
190.0777	207	C15H10+
191.0856	700	C15H11+
192.0933	105	C15H12+
193.1013	26	C15H13+
202.0778	168	C16H10+
203.0856	720	C16H11+
204.0933	241	C16H12+
205.1012	100	C16H13+
215.0855	66	C17H11+
216.0935	37	C17H12+
217.1012	373	C17H13+
218.109	144	C17H14+
233.1329	5	C18H17+
