Mass spectrum: Methadone; LC-ESI-ITFT; MS2; CE: 60%; R=7500; [M+H]+
Name: Methadone
Name: 6-(dimethylamino)-4,4-diphenyl-3-heptanone
Formula: C21H27NO
Exact mass: 309.2093
SMILES: CCC(=O)C(CC(C)N(C)C)(c1ccccc1)c2ccccc2
InChI: InChI=1S/C21H27NO/c1-5-20(23)21(16-17(2)22(3)4,18-12-8-6-9-13-18)19-14-10-7-11-15-19/h6-15,17H,5,16H2,1-4H3
Instrument: LTQ Orbitrap XL Thermo Scientific
Instrument type: LC-ESI-ITFT
Ms type: MS2
Ionization: ESI
Ion mode: POSITIVE
Fragmentation mode: HCD
Collision energy: 60 % (nominal)
Resolution: 7500
Retention time: 8.4 min
Base peak: 310.2177
Precursor m/z: 310.2165
Precursor type: [M+H]+
m/z	relative intensity	assigned
57.0335	19	C3H5O+
77.0386	41	C6H5+
91.0542	222	C7H7+
105.0335	999	C7H5O+
105.0699	112	C8H9+
115.0546	10	C9H7+
117.0698	156	C9H9+
129.0699	57	C10H9+
131.0849	17	C10H11+
143.0855	15	C11H11+
145.0646	25	C10H9O+
145.1009	7	C11H13+
147.0806	10	C10H11O+
159.079	8	C9H9N3+
159.1169	33	C12H15+
167.0853	50	C13H11+
169.1013	11	C13H13+
191.0857	13	C15H11+
194.0726	22	C14H10O+
195.0801	10	C14H11O+
195.1168	97	C15H15+
204.093	75	C16H12+
205.1013	42	C16H13+
217.101	13	C17H13+
218.1087	69	C17H14+
219.1167	146	C17H15+
223.1113	68	C16H15O+
224.1193	13	C16H16O+
232.1245	15	C18H16+
236.1202	21	C17H16O+
247.1469	7	C19H19+
