Mass spectrum: 1-(3-(Trifluoromethyl)phenyl)piperazine; LC-ESI-ITFT; MS2; CE: 75%; R=7500; [M+H]+
Name: 1-(3-(Trifluoromethyl)phenyl)piperazine
Formula: C11H13F3N2
Exact mass: 230.1031
SMILES: c1c(C(F)(F)F)cccc1N1CCNCC1
InChI: InChI=1S/C11H13F3N2/c12-11(13,14)9-2-1-3-10(8-9)16-6-4-15-5-7-16/h1-3,8,15H,4-7H2
Instrument: LTQ Orbitrap XL Thermo Scientific
Instrument type: LC-ESI-ITFT
Ms type: MS2
Ionization: ESI
Ion mode: POSITIVE
Fragmentation mode: HCD
Collision energy: 75 % (nominal)
Resolution: 7500
Retention time: 5.9 min
Base peak: 231.1108
Precursor m/z: 231.1104
Precursor type: [M+H]+
m/z	relative intensity	assigned
56.0496	5	C3H6N+
58.0652	2	C3H8N+
70.0651	19	C4H8N+
104.0494	5	C7H6N+
117.0575	8	C8H7N+
118.0652	43	C8H8N+
119.073	140	C8H9N+
121.0449	7	C8H6F+
127.0355	27	C7H5F2+
128.0494	7	C9H6N+
140.0302	3	C7H4F2N+
141.0511	26	C8H7F2+
145.0257	15	C7H4F3+
148.0558	64	C9H7FN+
151.0352	8	C9H5F2+
160.0365	13	C7H5F3N+
161.0448	3	C7H6F3N+
162.0528	8	C7H7F3N+
166.0462	39	C9H6F2N+
168.0619	79	C9H8F2N+
172.0369	22	C8H5F3N+
174.0526	54	C8H7F3N+
186.0526	46	C9H7F3N+
187.0596	5	C9H8F3N+
188.0682	999	C9H9F3N+
200.0682	31	C10H9F3N+
201.0643	3	C9H8F3N2+
214.0841	5	C11H11F3N+
229.0943	17	C11H12F3N2+
231.1111	47	C11H14F3N2+
