Mass spectrum: Cocaine; LC-ESI-ITFT; MS2; CE: 45%; R=7500; [M+H]+
Name: Cocaine
Name:  (1S,3S,4R,5R)-3-benzoyloxy-8-methyl-8-azabicyclo[3.2.1]octane-4-carboxylic acid methyl ester
Formula: C17H21NO4
Exact mass: 303.1471
SMILES: CN1C2CCC1C(C(C2)OC(=O)C3=CC=CC=C3)C(=O)OC
InChI: InChI=1S/C17H21NO4/c1-18-12-8-9-13(18)15(17(20)21-2)14(10-12)22-16(19)11-6-4-3-5-7-11/h3-7,12-15H,8-10H2,1-2H3/t12-,13+,14-,15+/m0/s1
Instrument: LTQ Orbitrap XL Thermo Scientific
Instrument type: LC-ESI-ITFT
Ms type: MS2
Ionization: ESI
Ion mode: POSITIVE
Fragmentation mode: HCD
Collision energy: 45 % (nominal)
Resolution: 7500
Retention time: 5.0 min
Base peak: 304.1557
Precursor m/z: 304.1543
Precursor type: [M+H]+
m/z	relative intensity	assigned
77.0387	4	C6H5+
82.0653	107	C5H8N+
91.0544	14	C7H7+
93.0336	2	C6H5O+
93.0701	5	C7H9+
94.065	3	C6H8N+
96.0807	7	C6H10N+
105.0336	97	C7H5O+
108.0809	25	C7H10N+
118.041	6	C8H6O+
119.0493	27	C8H7O+
122.0966	13	C8H12N+
150.0915	72	C9H12NO+
151.0751	5	C9H11O2+
154.0864	10	C8H12NO2+
182.1178	999	C10H16NO2+
272.1281	13	C16H18NO3+
304.1549	106	C17H22NO4+
