Mass spectrum: Ketamine; LC-ESI-ITFT; MS2; CE: 35%; R=7500; [M+H]+
Name: Ketamine
Name: 2-(2-chlorophenyl)-2-(methylamino)-1-cyclohexanone
Formula: C13H16ClNO
Exact mass: 237.0920
SMILES: CNC1(CCCCC1=O)C2=CC=CC=C2Cl
InChI: InChI=1S/C13H16ClNO/c1-15-13(9-5-4-8-12(13)16)10-6-2-3-7-11(10)14/h2-3,6-7,15H,4-5,8-9H2,1H3
Instrument: LTQ Orbitrap XL Thermo Scientific
Instrument type: LC-ESI-ITFT
Ms type: MS2
Ionization: ESI
Ion mode: POSITIVE
Fragmentation mode: CID
Collision energy: 35 % (nominal)
Resolution: 7500
Retention time: 4.6 min
Base peak: 238.0997
Precursor m/z: 238.0993
Precursor type: [M+H]+
m/z	relative intensity	assigned
125.015	30	C7H6Cl+
152.0261	33	C8H7ClN+
163.0301	1	C10H8Cl+
179.0622	61	C11H12Cl+
185.1198	1	C13H15N+
189.0461	1	C12H10Cl+
207.057	279	C12H12ClO+
220.0888	999	C13H15ClN+
