Mass spectrum: Dextromethorphan; LC-ESI-ITFT; MS2; CE: 75%; R=15000; [M+H]+
Name: Dextromethorphan
Name: DXM
Name: (14alpha)-3-Methoxy-17-methylmorphinan
Formula: C18H25NO
Exact mass: 271.1936
SMILES: O(c1ccc3c(c1)[C@@]24[C@@H]([C@H](N(CC2)C)C3)CCCC4)C
InChI: InChI=1S/C18H25NO/c1-19-10-9-18-8-4-3-5-15(18)17(19)11-13-6-7-14(20-2)12-16(13)18/h6-7,12,15,17H,3-5,8-11H2,1-2H3/t15-,17+,18+/m1/s1
Instrument: LTQ Orbitrap XL Thermo Scientific
Instrument type: LC-ESI-ITFT
Ms type: MS2
Ionization: ESI
Ion mode: POSITIVE
Fragmentation mode: HCD
Collision energy: 75 % (nominal)
Resolution: 15000
Retention time: 6.6 min
Base peak: 272.2015
Precursor m/z: 272.2009
Precursor type: [M+H]+
m/z	relative intensity	assigned
67.0542	10	C5H7+
69.0698	22	C5H9+
79.0543	9	C6H7+
81.0699	27	C6H9+
91.0542	61	C7H7+
93.0699	10	C7H9+
95.0855	14	C7H11+
107.0493	5	C7H7O+
107.0854	5	C8H11+
115.0543	4	C9H7+
119.0856	14	C9H11+
121.0648	234	C8H9O+
128.0619	6	C10H8+
129.0697	7	C10H9+
132.057	61	C9H8O+
135.0804	92	C9H11O+
141.0694	13	C11H9+
144.057	51	C10H8O+
145.0648	37	C10H9O+
146.0727	5	C10H10O+
147.0805	999	C10H11O+
157.0648	6	C11H9O+
158.0725	44	C11H10O+
159.0804	332	C11H11O+
160.0883	14	C11H12O+
161.096	38	C11H13O+
166.0781	9	C13H10+
170.0728	12	C12H10O+
171.0805	963	C12H11O+
172.0878	8	C12H12O+
173.096	344	C12H13O+
174.1034	7	C12H14O+
181.1012	25	C14H13+
182.1089	11	C14H14+
184.0882	15	C13H12O+
185.0959	29	C13H13O+
187.1118	19	C13H15O+
198.1039	275	C14H14O+
199.1117	50	C14H15O+
200.1194	18	C14H16O+
209.1067	8	C14H13N2+
211.1123	6	C15H15O+
213.1274	989	C15H17O+
215.143	452	C15H19O+
241.1584	12	C17H21O+
272.2011	203	C18H26NO+
