Mass spectrum: Benzoylecgonine; LC-ESI-ITFT; MS2; CE: 45%; R=15000; [M+H]+
Name: Benzoylecgonine
Name:  3-benzoyloxy-8-methyl-8-azabicyclo[3.2.1]octane-4-carboxylic acid
Formula: C16H19NO4
Exact mass: 289.1314
SMILES: CN1C2CCC1C(C(C2)OC(=O)C3=CC=CC=C3)C(=O)O
InChI: InChI=1S/C16H19NO4/c1-17-11-7-8-12(17)14(15(18)19)13(9-11)21-16(20)10-5-3-2-4-6-10/h2-6,11-14H,7-9H2,1H3,(H,18,19)
Instrument: LTQ Orbitrap XL Thermo Scientific
Instrument type: LC-ESI-ITFT
Ms type: MS2
Ionization: ESI
Ion mode: POSITIVE
Fragmentation mode: HCD
Collision energy: 45 % (nominal)
Resolution: 15000
Retention time: 4.6 min
Base peak: 290.1395
Precursor m/z: 290.1387
Precursor type: [M+H]+
m/z	relative intensity	assigned
76.0393	3	C2H6NO2+
77.0386	10	C6H5+
82.0651	63	C5H8N+
84.0806	2	C5H10N+
91.0542	15	C7H7+
93.0699	15	C7H9+
94.0651	2	C6H8N+
96.0808	6	C6H10N+
100.0756	12	C5H10NO+
105.0335	213	C7H5O+
108.0811	3	C7H10N+
119.0491	23	C8H7O+
122.0964	13	C8H12N+
124.1121	39	C8H14N+
132.0805	3	C9H10N+
140.1068	5	C8H14NO+
150.0913	58	C9H12NO+
168.102	999	C9H14NO2+
272.1279	43	C16H18NO3+
290.1387	161	C16H20NO4+
