Mass spectrum: Dextromethorphan; LC-ESI-ITFT; MS2; CE: 35%; R=15000; [M+H]+
Name: Dextromethorphan
Name: DXM
Name: (14alpha)-3-Methoxy-17-methylmorphinan
Formula: C18H25NO
Exact mass: 271.1936
SMILES: O(c1ccc3c(c1)[C@@]24[C@@H]([C@H](N(CC2)C)C3)CCCC4)C
InChI: InChI=1S/C18H25NO/c1-19-10-9-18-8-4-3-5-15(18)17(19)11-13-6-7-14(20-2)12-16(13)18/h6-7,12,15,17H,3-5,8-11H2,1-2H3/t15-,17+,18+/m1/s1
Instrument: LTQ Orbitrap XL Thermo Scientific
Instrument type: LC-ESI-ITFT
Ms type: MS2
Ionization: ESI
Ion mode: POSITIVE
Fragmentation mode: CID
Collision energy: 35 % (nominal)
Resolution: 15000
Retention time: 6.6 min
Base peak: 272.2015
Precursor m/z: 272.2009
Precursor type: [M+H]+
m/z	relative intensity	assigned
121.0648	18	C8H9O+
132.0564	1	C9H8O+
135.0804	4	C9H11O+
147.0804	147	C10H11O+
159.0804	37	C11H11O+
171.0804	16	C12H11O+
173.096	26	C12H13O+
187.1118	1	C13H15O+
199.1117	7	C14H15O+
213.1275	212	C15H17O+
215.1431	999	C15H19O+
229.1585	4	C16H21O+
241.1585	19	C17H21O+
