Mass spectrum: Mephedrone; LC-ESI-ITFT; MS2; CE: 75%; R=7500; [M+H]+
Name: Mephedrone
Name: 2-(Methylamino)-1-(4-methylphenyl)-1-propanone
Name: 4-methylmethcathinone
Formula: C11H15NO
Exact mass: 177.1154
SMILES: Cc1ccc(cc1)C(=O)C(C)NC
InChI: InChI=1S/C11H15NO/c1-8-4-6-10(7-5-8)11(13)9(2)12-3/h4-7,9,12H,1-3H3
Instrument: LTQ Orbitrap XL Thermo Scientific
Instrument type: LC-ESI-ITFT
Ms type: MS2
Ionization: ESI
Ion mode: POSITIVE
Fragmentation mode: HCD
Collision energy: 75 % (nominal)
Resolution: 7500
Retention time: 4.3 min
Base peak: 178.1231
Precursor m/z: 178.1226
Precursor type: [M+H]+
m/z	relative intensity	assigned
58.0652	9	C3H8N+
91.0544	43	C7H7+
93.0699	6	C7H9+
103.0544	5	C8H7+
104.0622	2	C8H8+
105.0702	3	C8H9+
116.0625	3	C9H8+
117.07	30	C9H9+
119.0857	208	C9H11+
129.0701	6	C10H9+
130.0653	26	C9H8N+
131.0861	3	C10H11+
144.0811	221	C10H10N+
145.0888	999	C10H11N+
147.08	4	C10H11O+
158.0968	5	C11H12N+
159.1039	7	C11H13N+
160.1124	214	C11H14N+
