Mass spectrum: Cocaine; LC-ESI-ITFT; MS2; CE: 75%; R=15000; [M+H]+
Name: Cocaine
Name:  (1S,3S,4R,5R)-3-benzoyloxy-8-methyl-8-azabicyclo[3.2.1]octane-4-carboxylic acid methyl ester
Formula: C17H21NO4
Exact mass: 303.1471
SMILES: CN1C2CCC1C(C(C2)OC(=O)C3=CC=CC=C3)C(=O)OC
InChI: InChI=1S/C17H21NO4/c1-18-12-8-9-13(18)15(17(20)21-2)14(10-12)22-16(19)11-6-4-3-5-7-11/h3-7,12-15H,8-10H2,1-2H3/t12-,13+,14-,15+/m0/s1
Instrument: LTQ Orbitrap XL Thermo Scientific
Instrument type: LC-ESI-ITFT
Ms type: MS2
Ionization: ESI
Ion mode: POSITIVE
Fragmentation mode: HCD
Collision energy: 75 % (nominal)
Resolution: 15000
Retention time: 5.0 min
Base peak: 304.1557
Precursor m/z: 304.1543
Precursor type: [M+H]+
m/z	relative intensity	assigned
56.0495	6	C3H6N+
65.0386	108	C5H5+
67.0542	25	C5H7+
68.0495	109	C4H6N+
70.0651	31	C4H8N+
77.0386	188	C6H5+
79.0543	83	C6H7+
80.0496	10	C5H6N+
81.0699	42	C6H9+
82.0652	868	C5H8N+
83.073	146	C5H9N+
84.0444	9	C4H6NO+
91.0542	341	C7H7+
93.0335	124	C6H5O+
93.0699	54	C7H9+
94.0651	99	C6H8N+
95.0492	16	C6H7O+
95.0729	8	C6H9N+
96.0808	68	C6H10N+
97.0648	73	C6H9O+
105.0335	999	C7H5O+
105.0445	62	C6H5N2+
106.0654	8	C7H8N+
107.0489	7	C7H7O+
107.0729	24	C7H9N+
108.0808	171	C7H10N+
109.0648	19	C7H9O+
117.0575	18	C8H7N+
118.0414	45	C8H6O+
119.0492	240	C8H7O+
122.0599	14	C7H8NO+
122.0965	194	C8H12N+
125.0598	33	C7H9O2+
132.0809	25	C9H10N+
135.0679	37	C8H9NO+
150.0914	156	C9H12NO+
154.0863	64	C8H12NO2+
182.1176	308	C10H16NO2+
