Mass spectrum: Ketamine; LC-ESI-ITFT; MS2; CE: 60%; R=7500; [M+H]+
Name: Ketamine
Name: 2-(2-chlorophenyl)-2-(methylamino)-1-cyclohexanone
Formula: C13H16ClNO
Exact mass: 237.0920
SMILES: CNC1(CCCCC1=O)C2=CC=CC=C2Cl
InChI: InChI=1S/C13H16ClNO/c1-15-13(9-5-4-8-12(13)16)10-6-2-3-7-11(10)14/h2-3,6-7,15H,4-5,8-9H2,1H3
Instrument: LTQ Orbitrap XL Thermo Scientific
Instrument type: LC-ESI-ITFT
Ms type: MS2
Ionization: ESI
Ion mode: POSITIVE
Fragmentation mode: HCD
Collision energy: 60 % (nominal)
Resolution: 7500
Retention time: 4.6 min
Base peak: 238.0997
Precursor m/z: 238.0993
Precursor type: [M+H]+
m/z	relative intensity	assigned
67.0543	47	C5H7+
115.0541	6	C9H7+
125.0153	999	C7H6Cl+
128.0622	16	C10H8+
129.07	13	C10H9+
130.0775	11	C10H10+
138.994	9	C7H4ClO+
141.0101	38	C7H6ClO+
142.0773	2	C11H10+
143.0855	12	C11H11+
144.0933	27	C11H12+
149.015	20	C9H6Cl+
151.0309	85	C9H8Cl+
152.0261	57	C8H7ClN+
153.0697	25	C12H9+
154.0778	44	C12H10+
155.0602	11	C10H7N2+
156.0936	17	C12H12+
157.0887	9	C11H11N+
163.0309	179	C10H8Cl+
165.0101	47	C9H6ClO+
165.0465	41	C10H10Cl+
172.0877	6	C12H12O+
177.0469	3	C11H10Cl+
179.0622	182	C11H12Cl+
185.1198	4	C13H15N+
189.0465	50	C12H10Cl+
191.063	8	C12H12Cl+
192.0577	5	C11H11ClN+
207.057	39	C12H12ClO+
220.0888	99	C13H15ClN+
