Mass spectrum: Ketamine; LC-ESI-ITFT; MS2; CE: 90%; R=7500; [M+H]+
Name: Ketamine
Name: 2-(2-chlorophenyl)-2-(methylamino)-1-cyclohexanone
Formula: C13H16ClNO
Exact mass: 237.0920
SMILES: CNC1(CCCCC1=O)C2=CC=CC=C2Cl
InChI: InChI=1S/C13H16ClNO/c1-15-13(9-5-4-8-12(13)16)10-6-2-3-7-11(10)14/h2-3,6-7,15H,4-5,8-9H2,1H3
Instrument: LTQ Orbitrap XL Thermo Scientific
Instrument type: LC-ESI-ITFT
Ms type: MS2
Ionization: ESI
Ion mode: POSITIVE
Fragmentation mode: HCD
Collision energy: 90 % (nominal)
Resolution: 7500
Retention time: 4.6 min
Base peak: 238.0997
Precursor m/z: 238.0993
Precursor type: [M+H]+
m/z	relative intensity	assigned
67.0542	18	C5H7+
77.0386	8	C6H5+
89.0387	12	C7H5+
90.0463	2	C7H6+
99	6	C5H4Cl+
105.0445	3	C6H5N2+
113.0153	4	C6H6Cl+
115.0542	51	C9H7+
116.062	77	C9H8+
125.0153	999	C7H6Cl+
127.0542	3	C10H7+
128.0621	79	C10H8+
129.0698	68	C10H9+
130.0777	36	C10H10+
137.0151	5	C8H6Cl+
138.9945	9	C7H4ClO+
139.0055	7	C9HNO+
139.0304	3	C8H8Cl+
141.0101	30	C7H6ClO+
141.0699	10	C11H9+
142.078	5	C11H10+
143.0602	6	C9H7N2+
143.0852	5	C11H11+
144.0558	6	C8H6N3+
144.0936	14	C11H12+
149.0153	16	C9H6Cl+
151.0308	42	C9H8Cl+
152.0262	35	C8H7ClN+
152.0617	14	C12H8+
153.0697	32	C12H9+
154.0778	35	C12H10+
155.0604	29	C10H7N2+
155.0862	4	C12H11+
156.0935	4	C12H12+
157.0886	10	C11H11N+
162.0225	2	C10H7Cl+
163.0309	47	C10H8Cl+
165.0102	47	C9H6ClO+
165.0463	7	C10H10Cl+
179.0619	2	C11H12Cl+
