Mass spectrum: Dextromethorphan; LC-ESI-ITFT; MS2; CE: 75%; R=7500; [M+H]+
Name: Dextromethorphan
Name: DXM
Name: (14alpha)-3-Methoxy-17-methylmorphinan
Formula: C18H25NO
Exact mass: 271.1936
SMILES: O(c1ccc3c(c1)[C@@]24[C@@H]([C@H](N(CC2)C)C3)CCCC4)C
InChI: InChI=1S/C18H25NO/c1-19-10-9-18-8-4-3-5-15(18)17(19)11-13-6-7-14(20-2)12-16(13)18/h6-7,12,15,17H,3-5,8-11H2,1-2H3/t15-,17+,18+/m1/s1
Instrument: LTQ Orbitrap XL Thermo Scientific
Instrument type: LC-ESI-ITFT
Ms type: MS2
Ionization: ESI
Ion mode: POSITIVE
Fragmentation mode: HCD
Collision energy: 75 % (nominal)
Resolution: 7500
Retention time: 6.6 min
Base peak: 272.2015
Precursor m/z: 272.2009
Precursor type: [M+H]+
m/z	relative intensity	assigned
67.0542	10	C5H7+
69.0698	16	C5H9+
81.0698	29	C6H9+
91.0541	40	C7H7+
93.0697	16	C7H9+
95.0859	20	C7H11+
117.0694	7	C9H9+
121.0647	223	C8H9O+
132.0569	64	C9H8O+
135.0804	87	C9H11O+
141.0697	8	C11H9+
144.0567	44	C10H8O+
145.0647	39	C10H9O+
147.0804	999	C10H11O+
158.0725	45	C11H10O+
159.0804	317	C11H11O+
161.0964	35	C11H13O+
171.0804	962	C12H11O+
172.0887	6	C12H12O+
173.096	351	C12H13O+
181.1007	30	C14H13+
182.1091	11	C14H14+
184.0879	13	C13H12O+
185.0956	31	C13H13O+
187.1116	9	C13H15O+
198.1039	263	C14H14O+
199.1115	65	C14H15O+
200.1197	18	C14H16O+
211.1118	8	C15H15O+
213.1274	961	C15H17O+
215.1427	432	C15H19O+
241.1587	14	C17H21O+
272.2003	161	C18H26NO+
