Mass spectrum: Mephedrone; LC-ESI-ITFT; MS2; CE: 15%; R=15000; [M+H]+
Name: Mephedrone
Name: 2-(Methylamino)-1-(4-methylphenyl)-1-propanone
Name: 4-methylmethcathinone
Formula: C11H15NO
Exact mass: 177.1154
SMILES: Cc1ccc(cc1)C(=O)C(C)NC
InChI: InChI=1S/C11H15NO/c1-8-4-6-10(7-5-8)11(13)9(2)12-3/h4-7,9,12H,1-3H3
Instrument: LTQ Orbitrap XL Thermo Scientific
Instrument type: LC-ESI-ITFT
Ms type: MS2
Ionization: ESI
Ion mode: POSITIVE
Fragmentation mode: HCD
Collision energy: 15 % (nominal)
Resolution: 15000
Retention time: 4.3 min
Base peak: 178.1231
Precursor m/z: 178.1226
Precursor type: [M+H]+
m/z	relative intensity	assigned
119.049	1	C8H7O+
119.0853	1	C9H11+
142.0648	1	C10H8N+
144.0811	3	C10H10N+
147.0804	14	C10H11O+
158.0968	1	C11H12N+
160.1123	378	C11H14N+
178.1228	999	C11H16NO+
