Mass spectrum: 1-(3-Chlorophenyl)piperazine; LC-ESI-ITFT; MS2; CE: 90%; R=15000; [M+H]+
Name: 1-(3-Chlorophenyl)piperazine
Formula: C10H13ClN2
Exact mass: 196.0767
SMILES: c1c(Cl)cccc1N1CCNCC1
InChI: InChI=1S/C10H13ClN2/c11-9-2-1-3-10(8-9)13-6-4-12-5-7-13/h1-3,8,12H,4-7H2
Instrument: LTQ Orbitrap XL Thermo Scientific
Instrument type: LC-ESI-ITFT
Ms type: MS2
Ionization: ESI
Ion mode: POSITIVE
Fragmentation mode: HCD
Collision energy: 90 % (nominal)
Resolution: 15000
Retention time: 5.2 min
Base peak: 197.0847
Precursor m/z: 197.084
Precursor type: [M+H]+
m/z	relative intensity	assigned
56.0495	5	C3H6N+
58.0651	8	C3H8N+
70.0651	26	C4H8N+
77.0386	19	C6H5+
91.0542	57	C7H7+
92.062	31	C7H8+
98.9995	6	C5H4Cl+
104.0495	76	C7H6N+
105.0446	2	C6H5N2+
110.9997	14	C6H4Cl+
112.0075	21	C6H5Cl+
113.0152	3	C6H6Cl+
117.0573	57	C8H7N+
118.0652	860	C8H8N+
119.073	839	C8H9N+
120.0808	13	C8H10N+
126.0105	20	C6H5ClN+
127.0183	14	C6H6ClN+
130.0651	15	C9H8N+
132.0808	5	C9H10N+
138.0105	38	C7H5ClN+
139.0058	51	C6H4ClN2+
140.0262	124	C7H7ClN+
144.0808	20	C10H10N+
145.0886	7	C10H11N+
151.0185	2	C8H6ClN+
152.0261	13	C8H7ClN+
154.0419	999	C8H9ClN+
160.0999	5	C10H12N2+
166.0418	40	C9H9ClN+
167.037	4	C8H8ClN2+
168.0452	4	C8H9ClN2+
168.0574	5	C9H11ClN+
178.0421	3	C10H9ClN+
180.057	4	C10H11ClN+
195.0685	12	C10H12ClN2+
197.084	15	C10H14ClN2+
