Mass spectrum: Benzoylecgonine; LC-ESI-ITFT; MS2; CE: 60%; R=7500; [M+H]+
Name: Benzoylecgonine
Name:  3-benzoyloxy-8-methyl-8-azabicyclo[3.2.1]octane-4-carboxylic acid
Formula: C16H19NO4
Exact mass: 289.1314
SMILES: CN1C2CCC1C(C(C2)OC(=O)C3=CC=CC=C3)C(=O)O
InChI: InChI=1S/C16H19NO4/c1-17-11-7-8-12(17)14(15(18)19)13(9-11)21-16(20)10-5-3-2-4-6-10/h2-6,11-14H,7-9H2,1H3,(H,18,19)
Instrument: LTQ Orbitrap XL Thermo Scientific
Instrument type: LC-ESI-ITFT
Ms type: MS2
Ionization: ESI
Ion mode: POSITIVE
Fragmentation mode: HCD
Collision energy: 60 % (nominal)
Resolution: 7500
Retention time: 4.6 min
Base peak: 290.1395
Precursor m/z: 290.1387
Precursor type: [M+H]+
m/z	relative intensity	assigned
67.0544	17	C5H7+
68.0495	13	C4H6N+
77.0386	51	C6H5+
79.0541	4	C6H7+
81.0699	9	C6H9+
82.0652	241	C5H8N+
83.0491	9	C5H7O+
83.073	43	C5H9N+
84.0806	11	C5H10N+
91.0542	108	C7H7+
93.0333	10	C6H5O+
93.0699	51	C7H9+
94.065	21	C6H8N+
95.0488	4	C6H7O+
96.0808	34	C6H10N+
100.0757	39	C5H10NO+
105.0335	819	C7H5O+
107.0733	5	C7H9N+
108.0807	30	C7H10N+
109.0647	6	C7H9O+
119.0492	120	C8H7O+
122.0964	98	C8H12N+
124.112	72	C8H14N+
132.0807	19	C9H10N+
135.0676	15	C8H9NO+
140.071	15	C7H10NO2+
140.1068	5	C8H14NO+
150.0914	155	C9H12NO+
168.102	999	C9H14NO2+
272.1281	10	C16H18NO3+
