Mass spectrum: Amitriptyline; LC-ESI-ITFT; MS2; CE: 60%; R=7500; [M+H]+
Name: Amitriptyline
Name: 3-(10,11-Dihydro-5H-dibenzo[a,d][7]annulen-5-ylidene)-N,N-dimethyl-1-propanamine
Formula: C20H23N
Exact mass: 277.1830
SMILES: C1(\c2c(CCc3c1cccc3)cccc2)=C\CCN(C)C
InChI: InChI=1S/C20H23N/c1-21(2)15-7-12-20-18-10-5-3-8-16(18)13-14-17-9-4-6-11-19(17)20/h3-6,8-12H,7,13-15H2,1-2H3
Instrument: LTQ Orbitrap XL Thermo Scientific
Instrument type: LC-ESI-ITFT
Ms type: MS2
Ionization: ESI
Ion mode: POSITIVE
Fragmentation mode: HCD
Collision energy: 60 % (nominal)
Resolution: 7500
Retention time: 8.6 min
Base peak: 278.1913
Precursor m/z: 278.1903
Precursor type: [M+H]+
m/z	relative intensity	assigned
58.065	48	C3H8N+
84.0808	237	C5H10N+
85.0884	14	C5H11N+
91.0542	999	C7H7+
103.0543	34	C8H7+
105.0698	965	C8H9+
115.054	66	C9H7+
117.0698	902	C9H9+
129.0699	248	C10H9+
141.0696	72	C11H9+
153.0696	22	C12H9+
155.0855	378	C12H11+
178.0775	198	C14H10+
179.0853	282	C14H11+
190.0784	14	C15H10+
191.0854	739	C15H11+
192.0932	115	C15H12+
193.1011	138	C15H13+
203.0854	198	C16H11+
204.0932	261	C16H12+
205.101	516	C16H13+
207.1175	28	C16H15+
217.1017	61	C17H13+
218.1089	598	C17H14+
231.1166	38	C18H15+
233.1323	345	C18H17+
