Mass spectrum: Dextromethorphan; LC-ESI-ITFT; MS2; CE: 90%; R=15000; [M+H]+
Name: Dextromethorphan
Name: DXM
Name: (14alpha)-3-Methoxy-17-methylmorphinan
Formula: C18H25NO
Exact mass: 271.1936
SMILES: O(c1ccc3c(c1)[C@@]24[C@@H]([C@H](N(CC2)C)C3)CCCC4)C
InChI: InChI=1S/C18H25NO/c1-19-10-9-18-8-4-3-5-15(18)17(19)11-13-6-7-14(20-2)12-16(13)18/h6-7,12,15,17H,3-5,8-11H2,1-2H3/t15-,17+,18+/m1/s1
Instrument: LTQ Orbitrap XL Thermo Scientific
Instrument type: LC-ESI-ITFT
Ms type: MS2
Ionization: ESI
Ion mode: POSITIVE
Fragmentation mode: HCD
Collision energy: 90 % (nominal)
Resolution: 15000
Retention time: 6.6 min
Base peak: 272.2015
Precursor m/z: 272.2009
Precursor type: [M+H]+
m/z	relative intensity	assigned
67.0542	9	C5H7+
69.0699	16	C5H9+
77.0385	4	C6H5+
79.0541	6	C6H7+
81.0699	14	C6H9+
91.0542	79	C7H7+
93.0698	4	C7H9+
95.0855	8	C7H11+
105.0698	9	C8H9+
107.049	12	C7H7O+
107.0856	3	C8H11+
115.0542	15	C9H7+
116.062	5	C9H8+
117.0698	18	C9H9+
119.0854	12	C9H11+
121.0648	135	C8H9O+
128.0619	38	C10H8+
129.0698	10	C10H9+
131.0491	6	C9H7O+
132.0569	43	C9H8O+
135.0804	51	C9H11O+
141.0698	32	C11H9+
142.0776	5	C11H10+
143.0855	11	C11H11+
144.0569	60	C10H8O+
145.0647	26	C10H9O+
146.0724	9	C10H10O+
147.0804	471	C10H11O+
153.0699	9	C12H9+
154.0775	10	C12H10+
155.0603	7	C10H7N2+
155.0853	3	C12H11+
156.0569	25	C11H8O+
157.0647	13	C11H9O+
158.0725	80	C11H10O+
159.0804	155	C11H11O+
160.0882	7	C11H12O+
161.096	25	C11H13O+
165.0697	11	C13H9+
166.0775	17	C13H10+
170.0725	33	C12H10O+
171.0805	999	C12H11O+
172.0882	12	C12H12O+
173.096	167	C12H13O+
174.1039	3	C12H14O+
181.101	24	C14H13+
182.1088	15	C14H14+
183.0803	13	C13H11O+
184.0881	14	C13H12O+
185.0959	26	C13H13O+
187.1117	7	C13H15O+
197.0961	8	C14H13O+
198.1038	178	C14H14O+
199.1115	15	C14H15O+
200.1196	6	C14H16O+
209.1072	9	C14H13N2+
211.1114	4	C15H15O+
213.1273	198	C15H17O+
215.1429	36	C15H19O+
272.2	6	C18H26NO+
