Mass spectrum: EDDP; LC-ESI-ITFT; MS2; CE: 75%; R=7500; [M+H]+
Name: EDDP
Name: (2E)-2-ethylidene-1,5-dimethyl-3,3-diphenyl-pyrrolidine
Formula: C20H23N
Exact mass: 277.1830
SMILES: C/C=C/1\C(CC(N1C)C)(C2=CC=CC=C2)C3=CC=CC=C3
InChI: InChI=1S/C20H23N/c1-4-19-20(15-16(2)21(19)3,17-11-7-5-8-12-17)18-13-9-6-10-14-18/h4-14,16H,15H2,1-3H3/b19-4+
Instrument: LTQ Orbitrap XL Thermo Scientific
Instrument type: LC-ESI-ITFT
Ms type: MS2
Ionization: ESI
Ion mode: POSITIVE
Fragmentation mode: HCD
Collision energy: 75 % (nominal)
Resolution: 7500
Retention time: 6.5 min
Base peak: 278.1909
Precursor m/z: 278.1903
Precursor type: [M+H]+
m/z	relative intensity	assigned
58.065	3	C3H8N+
70.0651	7	C4H8N+
91.0541	21	C7H7+
98.0966	5	C6H12N+
103.0546	2	C8H7+
105.0698	12	C8H9+
115.0545	5	C9H7+
117.0697	4	C9H9+
118.0651	7	C8H8N+
128.0622	3	C10H8+
129.0699	13	C10H9+
143.0848	2	C11H11+
144.0811	3	C10H10N+
157.0887	13	C11H11N+
158.0965	43	C11H12N+
165.0703	2	C13H9+
170.0962	6	C12H12N+
171.1042	30	C12H13N+
172.1121	43	C12H14N+
178.0778	2	C14H10+
186.1278	377	C13H16N+
191.0857	3	C15H11+
200.1433	45	C14H18N+
201.1513	46	C14H19N+
203.0861	3	C16H11+
206.0967	8	C15H12N+
207.1043	45	C15H13N+
208.1112	4	C15H14N+
219.1041	67	C16H13N+
220.1121	9	C16H14N+
221.1199	3	C16H15N+
233.1198	15	C17H15N+
234.1277	999	C17H16N+
235.1358	2	C17H17N+
248.1433	60	C18H18N+
249.1511	90	C18H19N+
262.1591	5	C19H20N+
