Mass spectrum: Amitriptyline; LC-ESI-ITFT; MS2; CE: 15%; R=15000; [M+H]+
Name: Amitriptyline
Name: 3-(10,11-Dihydro-5H-dibenzo[a,d][7]annulen-5-ylidene)-N,N-dimethyl-1-propanamine
Formula: C20H23N
Exact mass: 277.1830
SMILES: C1(\c2c(CCc3c1cccc3)cccc2)=C\CCN(C)C
InChI: InChI=1S/C20H23N/c1-21(2)15-7-12-20-18-10-5-3-8-16(18)13-14-17-9-4-6-11-19(17)20/h3-6,8-12H,7,13-15H2,1-2H3
Instrument: LTQ Orbitrap XL Thermo Scientific
Instrument type: LC-ESI-ITFT
Ms type: MS2
Ionization: ESI
Ion mode: POSITIVE
Fragmentation mode: HCD
Collision energy: 15 % (nominal)
Resolution: 15000
Retention time: 8.6 min
Base peak: 278.1913
Precursor m/z: 278.1903
Precursor type: [M+H]+
m/z	relative intensity	assigned
91.0545	1	C7H7+
117.07	1	C9H9+
191.0852	1	C15H11+
233.133	5	C18H17+
278.1906	999	C20H24N+
