Mass spectrum: 1-(3-(Trifluoromethyl)phenyl)piperazine; LC-ESI-ITFT; MS2; CE: 90%; R=15000; [M+H]+
Name: 1-(3-(Trifluoromethyl)phenyl)piperazine
Formula: C11H13F3N2
Exact mass: 230.1031
SMILES: c1c(C(F)(F)F)cccc1N1CCNCC1
InChI: InChI=1S/C11H13F3N2/c12-11(13,14)9-2-1-3-10(8-9)16-6-4-15-5-7-16/h1-3,8,15H,4-7H2
Instrument: LTQ Orbitrap XL Thermo Scientific
Instrument type: LC-ESI-ITFT
Ms type: MS2
Ionization: ESI
Ion mode: POSITIVE
Fragmentation mode: HCD
Collision energy: 90 % (nominal)
Resolution: 15000
Retention time: 5.9 min
Base peak: 231.1108
Precursor m/z: 231.1104
Precursor type: [M+H]+
m/z	relative intensity	assigned
56.0495	6	C3H6N+
58.0651	8	C3H8N+
70.0651	24	C4H8N+
91.0542	17	C7H7+
92.062	5	C7H8+
93.0572	6	C6H7N+
104.0495	35	C7H6N+
117.0573	43	C8H7N+
118.0652	291	C8H8N+
119.073	332	C8H9N+
121.0448	29	C8H6F+
127.0354	137	C7H5F2+
128.0495	36	C9H6N+
129.0448	7	C8H5N2+
140.0307	25	C7H4F2N+
141.0511	88	C8H7F2+
142.0465	7	C7H6F2N+
145.026	135	C7H4F3+
146.0338	10	C7H5F3+
148.0557	191	C9H7FN+
151.0353	35	C9H5F2+
160.0368	41	C7H5F3N+
161.0446	36	C7H6F3N+
162.0525	22	C7H7F3N+
166.0463	108	C9H6F2N+
168.0619	179	C9H8F2N+
171.0417	11	C9H6F3+
172.0369	62	C8H5F3N+
173.0322	24	C7H4F3N2+
174.0526	125	C8H7F3N+
186.0526	96	C9H7F3N+
187.0605	18	C9H8F3N+
188.0683	999	C9H9F3N+
200.0683	23	C10H9F3N+
