Mass spectrum: Dextromethorphan; LC-ESI-ITFT; MS2; CE: 45%; R=15000; [M+H]+
Name: Dextromethorphan
Name: DXM
Name: (14alpha)-3-Methoxy-17-methylmorphinan
Formula: C18H25NO
Exact mass: 271.1936
SMILES: O(c1ccc3c(c1)[C@@]24[C@@H]([C@H](N(CC2)C)C3)CCCC4)C
InChI: InChI=1S/C18H25NO/c1-19-10-9-18-8-4-3-5-15(18)17(19)11-13-6-7-14(20-2)12-16(13)18/h6-7,12,15,17H,3-5,8-11H2,1-2H3/t15-,17+,18+/m1/s1
Instrument: LTQ Orbitrap XL Thermo Scientific
Instrument type: LC-ESI-ITFT
Ms type: MS2
Ionization: ESI
Ion mode: POSITIVE
Fragmentation mode: HCD
Collision energy: 45 % (nominal)
Resolution: 15000
Retention time: 6.6 min
Base peak: 272.2015
Precursor m/z: 272.2009
Precursor type: [M+H]+
m/z	relative intensity	assigned
121.0648	6	C8H9O+
132.0569	1	C9H8O+
147.0803	35	C10H11O+
159.0802	11	C11H11O+
171.0805	4	C12H11O+
173.096	6	C12H13O+
199.1114	3	C14H15O+
213.1273	78	C15H17O+
215.1431	197	C15H19O+
241.1583	5	C17H21O+
257.1782	1	C17H23NO+
272.2009	999	C18H26NO+
