Mass spectrum: Amitriptyline; LC-ESI-ITFT; MS2; CE: 75%; R=7500; [M+H]+
Name: Amitriptyline
Name: 3-(10,11-Dihydro-5H-dibenzo[a,d][7]annulen-5-ylidene)-N,N-dimethyl-1-propanamine
Formula: C20H23N
Exact mass: 277.1830
SMILES: C1(\c2c(CCc3c1cccc3)cccc2)=C\CCN(C)C
InChI: InChI=1S/C20H23N/c1-21(2)15-7-12-20-18-10-5-3-8-16(18)13-14-17-9-4-6-11-19(17)20/h3-6,8-12H,7,13-15H2,1-2H3
Instrument: LTQ Orbitrap XL Thermo Scientific
Instrument type: LC-ESI-ITFT
Ms type: MS2
Ionization: ESI
Ion mode: POSITIVE
Fragmentation mode: HCD
Collision energy: 75 % (nominal)
Resolution: 7500
Retention time: 8.6 min
Base peak: 278.1913
Precursor m/z: 278.1903
Precursor type: [M+H]+
m/z	relative intensity	assigned
58.0651	49	C3H8N+
70.0651	26	C4H8N+
72.0807	9	C4H10N+
77.0385	17	C6H5+
79.0543	40	C6H7+
84.0808	175	C5H10N+
85.0888	18	C5H11N+
91.0543	999	C7H7+
103.0543	70	C8H7+
105.0699	870	C8H9+
115.0542	165	C9H7+
117.0699	815	C9H9+
128.0622	35	C10H8+
129.07	298	C10H9+
141.0699	116	C11H9+
142.0782	21	C11H10+
153.07	58	C12H9+
154.0779	39	C12H10+
155.0603	35	C10H7N2+
155.0856	242	C12H11+
165.07	30	C13H9+
178.0778	294	C14H10+
179.0855	282	C14H11+
189.0692	24	C15H9+
190.0777	116	C15H10+
191.0855	757	C15H11+
192.0933	139	C15H12+
193.1014	65	C15H13+
202.0775	47	C16H10+
203.0855	536	C16H11+
204.0935	293	C16H12+
205.1013	298	C16H13+
215.0846	10	C17H11+
216.0931	35	C17H12+
217.1012	232	C17H13+
218.1091	408	C17H14+
231.1178	21	C18H15+
