Mass spectrum: 1-(3-Chlorophenyl)piperazine; LC-ESI-ITFT; MS2; CE: 35%; R=15000; [M+H]+
Name: 1-(3-Chlorophenyl)piperazine
Formula: C10H13ClN2
Exact mass: 196.0767
SMILES: c1c(Cl)cccc1N1CCNCC1
InChI: InChI=1S/C10H13ClN2/c11-9-2-1-3-10(8-9)13-6-4-12-5-7-13/h1-3,8,12H,4-7H2
Instrument: LTQ Orbitrap XL Thermo Scientific
Instrument type: LC-ESI-ITFT
Ms type: MS2
Ionization: ESI
Ion mode: POSITIVE
Fragmentation mode: CID
Collision energy: 35 % (nominal)
Resolution: 15000
Retention time: 5.2 min
Base peak: 197.0847
Precursor m/z: 197.084
Precursor type: [M+H]+
m/z	relative intensity	assigned
70.0652	3	C4H8N+
117.0572	2	C8H7N+
118.0653	12	C8H8N+
119.073	75	C8H9N+
140.0262	38	C7H7ClN+
145.0887	6	C10H11N+
152.0262	28	C8H7ClN+
154.0419	999	C8H9ClN+
160.0996	3	C10H12N2+
162.115	1	C10H14N2+
166.0418	28	C9H9ClN+
167.0371	6	C8H8ClN2+
168.0448	1	C8H9ClN2+
178.0419	4	C10H9ClN+
180.0575	35	C10H11ClN+
195.0682	1	C10H12ClN2+
197.0841	24	C10H14ClN2+
