Mass spectrum: Methadone; LC-ESI-ITFT; MS2; CE: 30%; R=15000; [M+H]+
Name: Methadone
Name: 6-(dimethylamino)-4,4-diphenyl-3-heptanone
Formula: C21H27NO
Exact mass: 309.2093
SMILES: CCC(=O)C(CC(C)N(C)C)(c1ccccc1)c2ccccc2
InChI: InChI=1S/C21H27NO/c1-5-20(23)21(16-17(2)22(3)4,18-12-8-6-9-13-18)19-14-10-7-11-15-19/h6-15,17H,5,16H2,1-4H3
Instrument: LTQ Orbitrap XL Thermo Scientific
Instrument type: LC-ESI-ITFT
Ms type: MS2
Ionization: ESI
Ion mode: POSITIVE
Fragmentation mode: HCD
Collision energy: 30 % (nominal)
Resolution: 15000
Retention time: 8.4 min
Base peak: 310.2177
Precursor m/z: 310.2165
Precursor type: [M+H]+
m/z	relative intensity	assigned
57.0334	5	C3H5O+
77.0386	2	C6H5+
91.0541	3	C7H7+
105.0334	55	C7H5O+
105.0699	7	C8H9+
117.0698	2	C9H9+
159.1168	16	C12H15+
187.1118	9	C13H15O+
195.1166	9	C15H15+
207.1164	1	C16H15+
218.108	1	C17H14+
219.1167	18	C17H15+
223.1117	41	C16H15O+
247.1481	34	C19H19+
265.1589	999	C19H21O+
310.2172	126	C21H28NO+
