Mass spectrum: EDDP; LC-ESI-ITFT; MS2; CE: 75%; R=15000; [M+H]+
Name: EDDP
Name: (2E)-2-ethylidene-1,5-dimethyl-3,3-diphenyl-pyrrolidine
Formula: C20H23N
Exact mass: 277.1830
SMILES: C/C=C/1\C(CC(N1C)C)(C2=CC=CC=C2)C3=CC=CC=C3
InChI: InChI=1S/C20H23N/c1-4-19-20(15-16(2)21(19)3,17-11-7-5-8-12-17)18-13-9-6-10-14-18/h4-14,16H,15H2,1-3H3/b19-4+
Instrument: LTQ Orbitrap XL Thermo Scientific
Instrument type: LC-ESI-ITFT
Ms type: MS2
Ionization: ESI
Ion mode: POSITIVE
Fragmentation mode: HCD
Collision energy: 75 % (nominal)
Resolution: 15000
Retention time: 6.5 min
Base peak: 278.1909
Precursor m/z: 278.1903
Precursor type: [M+H]+
m/z	relative intensity	assigned
58.0651	3	C3H8N+
70.0651	4	C4H8N+
91.0542	16	C7H7+
103.0543	4	C8H7+
105.0698	12	C8H9+
115.0541	7	C9H7+
117.0696	4	C9H9+
118.065	9	C8H8N+
124.1124	4	C8H14N+
128.0619	2	C10H8+
129.0698	10	C10H9+
131.0852	2	C10H11+
143.0731	2	C10H9N+
143.0851	2	C11H11+
144.0804	4	C10H10N+
156.0806	5	C11H10N+
157.0885	15	C11H11N+
158.0963	47	C11H12N+
170.0961	7	C12H12N+
171.1042	30	C12H13N+
172.112	48	C12H14N+
178.078	4	C14H10+
184.1119	2	C13H14N+
186.1277	386	C13H16N+
192.0932	4	C15H12+
193.0885	5	C14H11N+
193.1008	6	C15H13+
200.1433	42	C14H18N+
201.1511	44	C14H19N+
204.0931	1	C16H12+
205.1009	4	C16H13+
206.0968	6	C15H12N+
207.1042	46	C15H13N+
208.1118	5	C15H14N+
217.102	2	C17H13+
218.0967	5	C16H12N+
219.1042	67	C16H13N+
220.1121	12	C16H14N+
221.1201	4	C16H15N+
232.1123	4	C17H14N+
233.1199	10	C17H15N+
234.1278	999	C17H16N+
235.136	2	C17H17N+
236.1443	2	C17H18N+
248.1432	63	C18H18N+
249.1511	96	C18H19N+
262.1581	6	C19H20N+
278.1914	67	C20H24N+
