Mass spectrum: 1-(3-Chlorophenyl)piperazine; LC-ESI-ITFT; MS2; CE: 75%; R=15000; [M+H]+
Name: 1-(3-Chlorophenyl)piperazine
Formula: C10H13ClN2
Exact mass: 196.0767
SMILES: c1c(Cl)cccc1N1CCNCC1
InChI: InChI=1S/C10H13ClN2/c11-9-2-1-3-10(8-9)13-6-4-12-5-7-13/h1-3,8,12H,4-7H2
Instrument: LTQ Orbitrap XL Thermo Scientific
Instrument type: LC-ESI-ITFT
Ms type: MS2
Ionization: ESI
Ion mode: POSITIVE
Fragmentation mode: HCD
Collision energy: 75 % (nominal)
Resolution: 15000
Retention time: 5.2 min
Base peak: 197.0847
Precursor m/z: 197.084
Precursor type: [M+H]+
m/z	relative intensity	assigned
56.0494	3	C3H6N+
58.0651	5	C3H8N+
70.0652	24	C4H8N+
91.0542	16	C7H7+
92.062	8	C7H8+
104.0494	18	C7H6N+
110.9991	3	C6H4Cl+
112.0073	4	C6H5Cl+
117.0572	20	C8H7N+
118.0652	222	C8H8N+
119.073	477	C8H9N+
120.081	4	C8H10N+
126.0105	6	C6H5ClN+
127.0181	3	C6H6ClN+
130.0652	8	C9H8N+
132.0808	2	C9H10N+
138.0105	13	C7H5ClN+
139.0059	4	C6H4ClN2+
140.0262	59	C7H7ClN+
144.0808	10	C10H10N+
145.0886	11	C10H11N+
152.0261	12	C8H7ClN+
154.0419	999	C8H9ClN+
160.0994	3	C10H12N2+
166.0418	24	C9H9ClN+
167.0371	4	C8H8ClN2+
168.0444	2	C8H9ClN2+
168.0572	5	C9H11ClN+
178.042	2	C10H9ClN+
180.0576	11	C10H11ClN+
195.0685	41	C10H12ClN2+
197.0837	106	C10H14ClN2+
