Mass spectrum: Amitriptyline; LC-ESI-ITFT; MS2; CE: 45%; R=15000; [M+H]+
Name: Amitriptyline
Name: 3-(10,11-Dihydro-5H-dibenzo[a,d][7]annulen-5-ylidene)-N,N-dimethyl-1-propanamine
Formula: C20H23N
Exact mass: 277.1830
SMILES: C1(\c2c(CCc3c1cccc3)cccc2)=C\CCN(C)C
InChI: InChI=1S/C20H23N/c1-21(2)15-7-12-20-18-10-5-3-8-16(18)13-14-17-9-4-6-11-19(17)20/h3-6,8-12H,7,13-15H2,1-2H3
Instrument: LTQ Orbitrap XL Thermo Scientific
Instrument type: LC-ESI-ITFT
Ms type: MS2
Ionization: ESI
Ion mode: POSITIVE
Fragmentation mode: HCD
Collision energy: 45 % (nominal)
Resolution: 15000
Retention time: 8.6 min
Base peak: 278.1913
Precursor m/z: 278.1903
Precursor type: [M+H]+
m/z	relative intensity	assigned
58.0651	35	C3H8N+
72.0809	3	C4H10N+
84.0808	136	C5H10N+
85.0886	11	C5H11N+
91.0542	529	C7H7+
103.0543	6	C8H7+
105.0699	559	C8H9+
115.0543	7	C9H7+
117.0699	550	C9H9+
129.0699	78	C10H9+
141.0699	34	C11H9+
155.0855	207	C12H11+
178.0777	80	C14H10+
179.0855	105	C14H11+
191.0856	385	C15H11+
192.0933	20	C15H12+
193.1012	56	C15H13+
203.0851	14	C16H11+
204.0934	63	C16H12+
205.1012	196	C16H13+
207.1168	43	C16H15+
218.109	214	C17H14+
231.1171	18	C18H15+
233.1326	999	C18H17+
278.1898	521	C20H24N+
