Mass spectrum: Mephedrone; LC-ESI-ITFT; MS2; CE: 90%; R=15000; [M+H]+
Name: Mephedrone
Name: 2-(Methylamino)-1-(4-methylphenyl)-1-propanone
Name: 4-methylmethcathinone
Formula: C11H15NO
Exact mass: 177.1154
SMILES: Cc1ccc(cc1)C(=O)C(C)NC
InChI: InChI=1S/C11H15NO/c1-8-4-6-10(7-5-8)11(13)9(2)12-3/h4-7,9,12H,1-3H3
Instrument: LTQ Orbitrap XL Thermo Scientific
Instrument type: LC-ESI-ITFT
Ms type: MS2
Ionization: ESI
Ion mode: POSITIVE
Fragmentation mode: HCD
Collision energy: 90 % (nominal)
Resolution: 15000
Retention time: 4.3 min
Base peak: 178.1231
Precursor m/z: 178.1226
Precursor type: [M+H]+
m/z	relative intensity	assigned
58.0651	13	C3H8N+
77.0386	6	C6H5+
79.0542	6	C6H7+
91.0543	153	C7H7+
93.0699	16	C7H9+
103.0542	21	C8H7+
104.0621	16	C8H8+
105.0699	7	C8H9+
115.0543	10	C9H7+
116.062	10	C9H8+
117.0699	76	C9H9+
119.0492	13	C8H7O+
119.0856	246	C9H11+
128.0622	5	C10H8+
129.0699	7	C10H9+
130.0652	80	C9H8N+
131.0603	3	C8H7N2+
131.073	2	C9H9N+
131.0855	4	C10H11+
142.0658	1	C10H8N+
144.0809	775	C10H10N+
145.0886	999	C10H11N+
147.081	1	C10H11O+
158.0963	11	C11H12N+
159.1042	4	C11H13N+
160.1121	59	C11H14N+
