Mass spectrum: Dextromethorphan; LC-ESI-ITFT; MS2; CE: 60%; R=15000; [M+H]+
Name: Dextromethorphan
Name: DXM
Name: (14alpha)-3-Methoxy-17-methylmorphinan
Formula: C18H25NO
Exact mass: 271.1936
SMILES: O(c1ccc3c(c1)[C@@]24[C@@H]([C@H](N(CC2)C)C3)CCCC4)C
InChI: InChI=1S/C18H25NO/c1-19-10-9-18-8-4-3-5-15(18)17(19)11-13-6-7-14(20-2)12-16(13)18/h6-7,12,15,17H,3-5,8-11H2,1-2H3/t15-,17+,18+/m1/s1
Instrument: LTQ Orbitrap XL Thermo Scientific
Instrument type: LC-ESI-ITFT
Ms type: MS2
Ionization: ESI
Ion mode: POSITIVE
Fragmentation mode: HCD
Collision energy: 60 % (nominal)
Resolution: 15000
Retention time: 6.6 min
Base peak: 272.2015
Precursor m/z: 272.2009
Precursor type: [M+H]+
m/z	relative intensity	assigned
58.0651	3	C3H8N+
69.07	4	C5H9+
79.054	3	C6H7+
81.0698	7	C6H9+
91.0542	5	C7H7+
93.0699	3	C7H9+
95.0854	4	C7H11+
121.0647	103	C8H9O+
132.0569	13	C9H8O+
135.0804	30	C9H11O+
144.0568	6	C10H8O+
145.0649	8	C10H9O+
147.0804	485	C10H11O+
158.072	6	C11H10O+
159.0803	148	C11H11O+
161.0958	9	C11H13O+
171.0804	170	C12H11O+
173.096	144	C12H13O+
185.0961	9	C13H13O+
187.1119	6	C13H15O+
198.1038	48	C14H14O+
199.1117	37	C14H15O+
200.1196	5	C14H16O+
213.1274	753	C15H17O+
215.1431	795	C15H19O+
241.1586	31	C17H21O+
272.201	999	C18H26NO+
