Mass spectrum: EDDP; LC-ESI-ITFT; MS2; CE: 45%; R=15000; [M+H]+
Name: EDDP
Name: (2E)-2-ethylidene-1,5-dimethyl-3,3-diphenyl-pyrrolidine
Formula: C20H23N
Exact mass: 277.1830
SMILES: C/C=C/1\C(CC(N1C)C)(C2=CC=CC=C2)C3=CC=CC=C3
InChI: InChI=1S/C20H23N/c1-4-19-20(15-16(2)21(19)3,17-11-7-5-8-12-17)18-13-9-6-10-14-18/h4-14,16H,15H2,1-3H3/b19-4+
Instrument: LTQ Orbitrap XL Thermo Scientific
Instrument type: LC-ESI-ITFT
Ms type: MS2
Ionization: ESI
Ion mode: POSITIVE
Fragmentation mode: HCD
Collision energy: 45 % (nominal)
Resolution: 15000
Retention time: 6.5 min
Base peak: 278.1909
Precursor m/z: 278.1903
Precursor type: [M+H]+
m/z	relative intensity	assigned
172.1114	1	C12H14N+
186.1274	4	C13H16N+
200.1434	9	C14H18N+
201.1511	16	C14H19N+
207.1042	1	C15H13N+
234.1277	67	C17H16N+
236.143	1	C17H18N+
248.1433	4	C18H18N+
249.1512	173	C18H19N+
263.1658	1	C19H21N+
278.1904	999	C20H24N+
