Mass spectrum: Ketamine; LC-ESI-ITFT; MS2; CE: 30%; R=15000; [M+H]+
Name: Ketamine
Name: 2-(2-chlorophenyl)-2-(methylamino)-1-cyclohexanone
Formula: C13H16ClNO
Exact mass: 237.0920
SMILES: CNC1(CCCCC1=O)C2=CC=CC=C2Cl
InChI: InChI=1S/C13H16ClNO/c1-15-13(9-5-4-8-12(13)16)10-6-2-3-7-11(10)14/h2-3,6-7,15H,4-5,8-9H2,1H3
Instrument: LTQ Orbitrap XL Thermo Scientific
Instrument type: LC-ESI-ITFT
Ms type: MS2
Ionization: ESI
Ion mode: POSITIVE
Fragmentation mode: HCD
Collision energy: 30 % (nominal)
Resolution: 15000
Retention time: 4.6 min
Base peak: 238.0997
Precursor m/z: 238.0993
Precursor type: [M+H]+
m/z	relative intensity	assigned
67.0542	9	C5H7+
125.0153	167	C7H6Cl+
138.9951	1	C7H4ClO+
141.0097	1	C7H6ClO+
151.0306	2	C9H8Cl+
152.0261	18	C8H7ClN+
154.0775	1	C12H10+
163.031	17	C10H8Cl+
165.0103	4	C9H6ClO+
179.0623	208	C11H12Cl+
189.0467	21	C12H10Cl+
207.0573	383	C12H12ClO+
220.0889	300	C13H15ClN+
238.0997	999	C13H17ClNO+
