Mass spectrum: 1-Benzylpiperazine; LC-ESI-ITFT; MS2; CE: 30%; R=15000; [M+H]+
Name: 1-Benzylpiperazine
Name: N-Benzylpiperazine
Name: 1-(phenylmethyl)piperazine
Formula: C11H16N2
Exact mass: 176.1313
SMILES: C1CN(CCN1)Cc1ccccc1
InChI: InChI=1S/C11H16N2/c1-2-4-11(5-3-1)10-13-8-6-12-7-9-13/h1-5,12H,6-10H2
Instrument: LTQ Orbitrap XL Thermo Scientific
Instrument type: LC-ESI-ITFT
Ms type: MS2
Ionization: ESI
Ion mode: POSITIVE
Fragmentation mode: HCD
Collision energy: 30 % (nominal)
Resolution: 15000
Retention time: 1.2 min
Base peak: 177.139
Precursor m/z: 177.1386
Precursor type: [M+H]+
m/z	relative intensity	assigned
85.076	14	C4H9N2+
91.0542	71	C7H7+
177.1387	999	C11H17N2+
