Mass spectrum: Amitriptyline; LC-ESI-ITFT; MS2; CE: 35%; R=15000; [M+H]+
Name: Amitriptyline
Name: 3-(10,11-Dihydro-5H-dibenzo[a,d][7]annulen-5-ylidene)-N,N-dimethyl-1-propanamine
Formula: C20H23N
Exact mass: 277.1830
SMILES: C1(\c2c(CCc3c1cccc3)cccc2)=C\CCN(C)C
InChI: InChI=1S/C20H23N/c1-21(2)15-7-12-20-18-10-5-3-8-16(18)13-14-17-9-4-6-11-19(17)20/h3-6,8-12H,7,13-15H2,1-2H3
Instrument: LTQ Orbitrap XL Thermo Scientific
Instrument type: LC-ESI-ITFT
Ms type: MS2
Ionization: ESI
Ion mode: POSITIVE
Fragmentation mode: CID
Collision energy: 35 % (nominal)
Resolution: 15000
Retention time: 8.6 min
Base peak: 278.1913
Precursor m/z: 278.1903
Precursor type: [M+H]+
m/z	relative intensity	assigned
84.0807	16	C5H10N+
91.0542	160	C7H7+
103.0542	3	C8H7+
105.0699	179	C8H9+
115.0542	6	C9H7+
117.0699	216	C9H9+
129.0699	8	C10H9+
141.0698	16	C11H9+
155.0855	118	C12H11+
178.0776	11	C14H10+
179.0855	24	C14H11+
191.0855	136	C15H11+
193.101	8	C15H13+
202.0786	1	C16H10+
204.0937	2	C16H12+
205.1012	25	C16H13+
207.1167	16	C16H15+
217.1012	1	C17H13+
218.1089	19	C17H14+
231.1165	2	C18H15+
233.1326	999	C18H17+
278.1912	2	C20H24N+
