Mass spectrum: Methadone; LC-ESI-ITFT; MS2; CE: 90%; R=15000; [M+H]+
Name: Methadone
Name: 6-(dimethylamino)-4,4-diphenyl-3-heptanone
Formula: C21H27NO
Exact mass: 309.2093
SMILES: CCC(=O)C(CC(C)N(C)C)(c1ccccc1)c2ccccc2
InChI: InChI=1S/C21H27NO/c1-5-20(23)21(16-17(2)22(3)4,18-12-8-6-9-13-18)19-14-10-7-11-15-19/h6-15,17H,5,16H2,1-4H3
Instrument: LTQ Orbitrap XL Thermo Scientific
Instrument type: LC-ESI-ITFT
Ms type: MS2
Ionization: ESI
Ion mode: POSITIVE
Fragmentation mode: HCD
Collision energy: 90 % (nominal)
Resolution: 15000
Retention time: 8.4 min
Base peak: 310.2177
Precursor m/z: 310.2165
Precursor type: [M+H]+
m/z	relative intensity	assigned
53.0385	10	C4H5+
57.0335	10	C3H5O+
77.0386	459	C6H5+
79.0543	17	C6H7+
91.0542	447	C7H7+
95.0491	48	C6H7O+
103.0542	32	C8H7+
105.0335	999	C7H5O+
105.0447	123	C6H5N2+
105.0699	134	C8H9+
107.0491	8	C7H7O+
115.0542	111	C9H7+
117.0699	227	C9H9+
128.062	48	C10H8+
129.0699	76	C10H9+
131.0855	18	C10H11+
141.0699	31	C11H9+
145.0647	19	C10H9O+
152.062	28	C12H8+
154.0778	5	C12H10+
155.0603	26	C10H7N2+
158.0727	6	C11H10O+
159.0805	4	C11H11O+
165.0699	58	C13H9+
166.0777	28	C13H10+
167.0855	94	C13H11+
178.0777	37	C14H10+
179.0856	13	C14H11+
190.0775	12	C15H10+
191.0854	27	C15H11+
192.0933	7	C15H12+
194.0726	102	C14H10O+
202.0778	46	C16H10+
203.0855	112	C16H11+
204.0933	158	C16H12+
205.1011	12	C16H13+
217.1011	91	C17H13+
218.1088	25	C17H14+
